<?xml version="1.0" encoding="UTF-8"?>

<!-- generated on 2024-04-17 22:04:50 by Eclipse SUMO sumo Version 1.19.0
-->

<configuration xmlns:xsi="http://www.w3.org/2001/XMLSchema-instance" xsi:noNamespaceSchemaLocation="http://sumo.dlr.de/xsd/sumoConfiguration.xsd">

    <input>
        <net-file value="interseccion.net.xml"/>
        <route-files value="routes_1_6x4changes.rou.xml"/>
        <junction-taz value="true"/>
    </input>

</configuration>
