<?xml version="1.0" encoding="UTF-8"?>

<!-- generated on 2024-04-18 00:25:49 by Eclipse SUMO netedit Version 1.19.0
-->

<routes xmlns:xsi="http://www.w3.org/2001/XMLSchema-instance"
    xsi:noNamespaceSchemaLocation="http://sumo.dlr.de/xsd/routes_file.xsd">
    <!-- VTypes -->
    <vType id="SLOWVEHTYPE" length="4.20" color="cyan" accel="2.1" maxSpeed="11.2" decel="4.3" />
    <vType id="MEDVEHTYPE" length="4.20" color="green" accel="2.3" maxSpeed="14.0" decel="4.4" />
    <vType id="FASTVEHTYPE" length="4.20" color="red" accel="2.5" maxSpeed="22.2" decel="4.5" />
    <vTypeDistribution id="td_0" vTypes="SLOWVEHTYPE MEDVEHTYPE FASTVEHTYPE"
        probabilities="0.25 0.60 0.15" />
    <!-- Vehicles, persons and containers (sorted by depart) -->
    <!-- 0-4hs -->
    <flow id="ew" type="td_0" begin="0.00" departLane="best" departSpeed="random" fromJunction="JE"
        toJunction="JW" end="14400.00" period="exp(0.154)" />
    <flow id="en" type="td_0" begin="0.00" departLane="best" departSpeed="random" fromJunction="JE"
        toJunction="JN" end="14400.00" period="exp(0.0484)" />
    <flow id="es" type="td_0" begin="0.00" departLane="best" departSpeed="random" fromJunction="JE"
        toJunction="JS" end="14400.00" period="exp(0.0176)" />

    <flow id="we" type="td_0" begin="0.00" departLane="best" departSpeed="random" fromJunction="JW"
        toJunction="JE" end="14400.00" period="exp(0.154)" />
    <flow id="wn" type="td_0" begin="0.00" departLane="best" departSpeed="random" fromJunction="JW"
        toJunction="JN" end="14400.00" period="exp(0.0176)" />
    <flow id="ws" type="td_0" begin="0.00" departLane="best" departSpeed="random" fromJunction="JW"
        toJunction="JS" end="14400.00" period="exp(0.0484)" />

    <flow id="ns" type="td_0" begin="0.00" departLane="best" departSpeed="random" fromJunction="JN"
        toJunction="JS" end="14400.00" period="exp(0.084)" />
    <flow id="ne" type="td_0" begin="0.00" departLane="best" departSpeed="random" fromJunction="JN"
        toJunction="JE" end="14400.00" period="exp(0.0096)" />
    <flow id="nw" type="td_0" begin="0.00" departLane="best" departSpeed="random" fromJunction="JN"
        toJunction="JW" end="14400.00" period="exp(0.0264)" />

    <flow id="sn" type="td_0" begin="0.00" departLane="best" departSpeed="random" fromJunction="JS"
        toJunction="JN" end="14400.00" period="exp(0.084)" />
    <flow id="se" type="td_0" begin="0.00" departLane="best" departSpeed="random" fromJunction="JS"
        toJunction="JE" end="14400.00" period="exp(0.0264)" />
    <flow id="sw" type="td_0" begin="0.00" departLane="best" departSpeed="random" fromJunction="JS"
        toJunction="JW" end="14400.00" period="exp(0.0096)" />

    <!-- 4-8hs  -->
    <flow id="ew2" type="td_0" begin="14400.00" departLane="best" departSpeed="random"
        fromJunction="JE"
        toJunction="JW" end="28800.00" period="exp(0.1078)" />
    <flow id="en2" type="td_0" begin="14400.00" departLane="best" departSpeed="random"
        fromJunction="JE"
        toJunction="JN" end="28800.00" period="exp(0.03388)" />
    <flow id="es2" type="td_0" begin="14400.00" departLane="best" departSpeed="random"
        fromJunction="JE"
        toJunction="JS" end="28800.00" period="exp(0.01232)" />

    <flow id="we2" type="td_0" begin="14400.00" departLane="best" departSpeed="random"
        fromJunction="JW"
        toJunction="JE" end="28800.00" period="exp(0.1078)" />
    <flow id="wn2" type="td_0" begin="14400.00" departLane="best" departSpeed="random"
        fromJunction="JW"
        toJunction="JN" end="28800.00" period="exp(0.01232)" />
    <flow id="ws2" type="td_0" begin="14400.00" departLane="best" departSpeed="random"
        fromJunction="JW"
        toJunction="JS" end="28800.00" period="exp(0.03388)" />

    <flow id="ns2" type="td_0" begin="14400.00" departLane="best" departSpeed="random"
        fromJunction="JN"
        toJunction="JS" end="28800.00" period="exp(0.0672)" />
    <flow id="ne2" type="td_0" begin="14400.00" departLane="best" departSpeed="random"
        fromJunction="JN"
        toJunction="JE" end="28800.00" period="exp(0.00768)" />
    <flow id="nw2" type="td_0" begin="14400.00" departLane="best" departSpeed="random"
        fromJunction="JN"
        toJunction="JW" end="28800.00" period="exp(0.02112)" />

    <flow id="sn2" type="td_0" begin="14400.00" departLane="best" departSpeed="random"
        fromJunction="JS"
        toJunction="JN" end="28800.00" period="exp(0.0672)" />
    <flow id="se2" type="td_0" begin="14400.00" departLane="best" departSpeed="random"
        fromJunction="JS"
        toJunction="JE" end="28800.00" period="exp(0.02112)" />
    <flow id="sw2" type="td_0" begin="14400.00" departLane="best" departSpeed="random"
        fromJunction="JS"
        toJunction="JW" end="28800.00" period="exp(0.00768)" />

    <!-- 8-12hs -->
    <flow id="ew3" type="td_0" begin="28800.00" departLane="best" departSpeed="random"
        fromJunction="JE"
        toJunction="JW" end="43200.00" period="exp(0.1694)" />
    <flow id="en3" type="td_0" begin="28800.00" departLane="best" departSpeed="random"
        fromJunction="JE"
        toJunction="JN" end="43200.00" period="exp(0.05324)" />
    <flow id="es3" type="td_0" begin="28800.00" departLane="best" departSpeed="random"
        fromJunction="JE"
        toJunction="JS" end="43200.00" period="exp(0.01936)" />

    <flow id="we3" type="td_0" begin="28800.00" departLane="best" departSpeed="random"
        fromJunction="JW"
        toJunction="JE" end="43200.00" period="exp(0.1617)" />
    <flow id="wn3" type="td_0" begin="28800.00" departLane="best" departSpeed="random"
        fromJunction="JW"
        toJunction="JN" end="43200.00" period="exp(0.01848)" />
    <flow id="ws3" type="td_0" begin="28800.00" departLane="best" departSpeed="random"
        fromJunction="JW"
        toJunction="JS" end="43200.00" period="exp(0.05082)" />

    <flow id="ns3" type="td_0" begin="28800.00" departLane="best" departSpeed="random"
        fromJunction="JN"
        toJunction="JS" end="43200.00" period="exp(0.0966)" />
    <flow id="ne3" type="td_0" begin="28800.00" departLane="best" departSpeed="random"
        fromJunction="JN"
        toJunction="JE" end="43200.00" period="exp(0.01104)" />
    <flow id="nw3" type="td_0" begin="28800.00" departLane="best" departSpeed="random"
        fromJunction="JN"
        toJunction="JW" end="43200.00" period="exp(0.030360)" />

    <flow id="sn3" type="td_0" begin="28800.00" departLane="best" departSpeed="random"
        fromJunction="JS"
        toJunction="JN" end="43200.00" period="exp(0.0966)" />
    <flow id="se3" type="td_0" begin="28800.00" departLane="best" departSpeed="random"
        fromJunction="JS"
        toJunction="JE" end="43200.00" period="exp(0.03036)" />
    <flow id="sw3" type="td_0" begin="28800.00" departLane="best" departSpeed="random"
        fromJunction="JS"
        toJunction="JW" end="43200.00" period="exp(0.01104)" />

    <!-- 12-16hs  -->
    <flow id="ew4" type="td_0" begin="43200.00" departLane="best" departSpeed="random"
        fromJunction="JE"
        toJunction="JW" end="57600.00" period="exp(0.1001)" />
    <flow id="en4" type="td_0" begin="43200.00" departLane="best" departSpeed="random"
        fromJunction="JE"
        toJunction="JN" end="57600.00" period="exp(0.03146)" />
    <flow id="es4" type="td_0" begin="43200.00" departLane="best" departSpeed="random"
        fromJunction="JE"
        toJunction="JS" end="57600.00" period="exp(0.01144)" />

    <flow id="we4" type="td_0" begin="43200.00" departLane="best" departSpeed="random"
        fromJunction="JW"
        toJunction="JE" end="57600.00" period="exp(0.1001)" />
    <flow id="wn4" type="td_0" begin="43200.00" departLane="best" departSpeed="random"
        fromJunction="JW"
        toJunction="JN" end="57600.00" period="exp(0.01144)" />
    <flow id="ws4" type="td_0" begin="43200.00" departLane="best" departSpeed="random"
        fromJunction="JW"
        toJunction="JS" end="57600.00" period="exp(0.03146)" />

    <flow id="ns4" type="td_0" begin="43200.00" departLane="best" departSpeed="random"
        fromJunction="JN"
        toJunction="JS" end="57600.00" period="exp(0.0672)" />
    <flow id="ne4" type="td_0" begin="43200.00" departLane="best" departSpeed="random"
        fromJunction="JN"
        toJunction="JE" end="57600.00" period="exp(0.00768)" />
    <flow id="nw4" type="td_0" begin="43200.00" departLane="best" departSpeed="random"
        fromJunction="JN"
        toJunction="JW" end="57600.00" period="exp(0.02112)" />

    <flow id="sn4" type="td_0" begin="43200.00" departLane="best" departSpeed="random"
        fromJunction="JS"
        toJunction="JN" end="57600.00" period="exp(0.0672)" />
    <flow id="se4" type="td_0" begin="43200.00" departLane="best" departSpeed="random"
        fromJunction="JS"
        toJunction="JE" end="57600.00" period="exp(0.02112)" />
    <flow id="sw4" type="td_0" begin="43200.00" departLane="best" departSpeed="random"
        fromJunction="JS"
        toJunction="JW" end="57600.00" period="exp(0.00768)" />

<!-- 16-20hs -->
    <flow id="ew5" type="td_0" begin="57600.00" departLane="best" departSpeed="random"
        fromJunction="JE"
        toJunction="JW" end="72000.00" period="exp(0.1617)" />
    <flow id="en5" type="td_0" begin="57600.00" departLane="best" departSpeed="random"
        fromJunction="JE"
        toJunction="JN" end="72000.00" period="exp(0.05082)" />
    <flow id="es5" type="td_0" begin="57600.00" departLane="best" departSpeed="random"
        fromJunction="JE"
        toJunction="JS" end="72000.00" period="exp(0.01848)" />

    <flow id="we5" type="td_0" begin="57600.00" departLane="best" departSpeed="random"
        fromJunction="JW"
        toJunction="JE" end="72000.00" period="exp(0.1694)" />
    <flow id="wn5" type="td_0" begin="57600.00" departLane="best" departSpeed="random"
        fromJunction="JW"
        toJunction="JN" end="72000.00" period="exp(0.01936)" />
    <flow id="ws5" type="td_0" begin="57600.00" departLane="best" departSpeed="random"
        fromJunction="JW"
        toJunction="JS" end="72000.00" period="exp(0.05324)" />

    <flow id="ns5" type="td_0" begin="57600.00" departLane="best" departSpeed="random"
        fromJunction="JN"
        toJunction="JS" end="72000.00" period="exp(0.0966)" />
    <flow id="ne5" type="td_0" begin="57600.00" departLane="best" departSpeed="random"
        fromJunction="JN"
        toJunction="JE" end="72000.00" period="exp(0.01104)" />
    <flow id="nw5" type="td_0" begin="57600.00" departLane="best" departSpeed="random"
        fromJunction="JN"
        toJunction="JW" end="72000.00" period="exp(0.030360)" />

    <flow id="sn5" type="td_0" begin="57600.00" departLane="best" departSpeed="random"
        fromJunction="JS"
        toJunction="JN" end="72000.00" period="exp(0.0966)" />
    <flow id="se5" type="td_0" begin="57600.00" departLane="best" departSpeed="random"
        fromJunction="JS"
        toJunction="JE" end="72000.00" period="exp(0.03036)" />
    <flow id="sw5" type="td_0" begin="57600.00" departLane="best" departSpeed="random"
        fromJunction="JS"
        toJunction="JW" end="72000.00" period="exp(0.01104)" />

    <!--20-24hs -->
    <flow id="ew6" type="td_0" begin="72000.00" departLane="best" departSpeed="random"
        fromJunction="JE"
        toJunction="JW" end="86400.00" period="exp(0.154)" />
    <flow id="en6" type="td_0" begin="72000.00" departLane="best" departSpeed="random"
        fromJunction="JE"
        toJunction="JN" end="86400.00" period="exp(0.0484)" />
    <flow id="es6" type="td_0" begin="72000.00" departLane="best" departSpeed="random"
        fromJunction="JE"
        toJunction="JS" end="86400.00" period="exp(0.0176)" />

    <flow id="we6" type="td_0" begin="72000.00" departLane="best" departSpeed="random" fromJunction="JW"
        toJunction="JE" end="86400.00" period="exp(0.154)" />
    <flow id="wn6" type="td_0" begin="72000.00" departLane="best" departSpeed="random" fromJunction="JW"
        toJunction="JN" end="86400.00" period="exp(0.0176)" />
    <flow id="ws6" type="td_0" begin="72000.00" departLane="best" departSpeed="random" fromJunction="JW"
        toJunction="JS" end="86400.00" period="exp(0.0484)" />

    <flow id="ns6" type="td_0" begin="72000.00" departLane="best" departSpeed="random" fromJunction="JN"
        toJunction="JS" end="86400.00" period="exp(0.0924)" />
    <flow id="ne6" type="td_0" begin="72000.00" departLane="best" departSpeed="random" fromJunction="JN"
        toJunction="JE" end="86400.00" period="exp(0.01056)" />
    <flow id="nw6" type="td_0" begin="72000.00" departLane="best" departSpeed="random" fromJunction="JN"
        toJunction="JW" end="86400.00" period="exp(0.02904)" />

    <flow id="sn6" type="td_0" begin="72000.00" departLane="best" departSpeed="random"
        fromJunction="JS"
        toJunction="JN" end="86400.00" period="exp(0.0924)" />
    <flow id="se6" type="td_0" begin="72000.00" departLane="best" departSpeed="random"
        fromJunction="JS"
        toJunction="JE" end="86400.00" period="exp(0.02904)" />
    <flow id="sw6" type="td_0" begin="72000.00" departLane="best" departSpeed="random"
        fromJunction="JS"
        toJunction="JW" end="86400.00" period="exp(0.01056)" />

</routes>