<?xml version="1.0" encoding="UTF-8"?>

<!-- generated on 2024-04-06 20:14:46 by Eclipse SUMO netedit Version 1.19.0
-->

<routes xmlns:xsi="http://www.w3.org/2001/XMLSchema-instance" xsi:noNamespaceSchemaLocation="http://sumo.dlr.de/xsd/routes_file.xsd">
    <!-- Vehicles, persons and containers (sorted by depart) -->
    <vehicle id="0" depart="0.00" departPos="150.28" arrivalPos="80.05">
        <route edges="E_E_in E_N_out"/>
    </vehicle>
    <vehicle id="1" depart="1.00" departPos="118.63" arrivalPos="1.63">
        <route edges="E_W_in E_N_out"/>
    </vehicle>
    <vehicle id="2" depart="2.00" departPos="17.40" arrivalPos="91.33">
        <route edges="E_W_in E_S_out"/>
    </vehicle>
    <vehicle id="5" depart="5.00" departPos="78.35" arrivalPos="164.32">
        <route edges="E_W_in E_S_out"/>
    </vehicle>
    <vehicle id="6" depart="6.00" departPos="153.80" arrivalPos="57.36">
        <route edges="E_N_in E_E_out"/>
    </vehicle>
    <vehicle id="7" depart="7.00" departPos="81.55" arrivalPos="131.54">
        <route edges="E_W_in E_S_out"/>
    </vehicle>
    <vehicle id="8" depart="8.00" departPos="32.90" arrivalPos="160.98">
        <route edges="E_N_in E_E_out"/>
    </vehicle>
    <vehicle id="16" depart="16.00" departPos="133.29" arrivalPos="77.82">
        <route edges="E_E_in E_E_out"/>
    </vehicle>
    <vehicle id="18" depart="18.00" departPos="66.69" arrivalPos="88.62">
        <route edges="E_E_in E_S_out"/>
    </vehicle>
    <vehicle id="19" depart="19.00" departPos="66.50" arrivalPos="143.36">
        <route edges="E_W_in E_N_out"/>
    </vehicle>
    <vehicle id="23" depart="23.00" departPos="138.96" arrivalPos="51.70">
        <route edges="E_E_in E_S_out"/>
    </vehicle>
    <vehicle id="24" depart="24.00" departPos="43.20" arrivalPos="116.14">
        <route edges="E_N_in E_E_out"/>
    </vehicle>
    <vehicle id="25" depart="25.00" departPos="147.41" arrivalPos="26.71">
        <route edges="E_E_in E_S_out"/>
    </vehicle>
    <vehicle id="26" depart="26.00" departPos="82.09" arrivalPos="124.87">
        <route edges="E_E_in E_S_out"/>
    </vehicle>
    <vehicle id="27" depart="27.00" departPos="131.02" arrivalPos="156.07">
        <route edges="E_N_in E_N_out"/>
    </vehicle>
    <vehicle id="28" depart="28.00" departPos="90.27" arrivalPos="77.21">
        <route edges="E_W_in E_W_out"/>
    </vehicle>
    <vehicle id="30" depart="30.00" departPos="150.75" arrivalPos="107.47">
        <route edges="E_E_in E_E_out"/>
    </vehicle>
    <vehicle id="31" depart="31.00" departPos="100.07" arrivalPos="156.41">
        <route edges="E_E_in E_S_out"/>
    </vehicle>
    <vehicle id="32" depart="32.00" departPos="120.97" arrivalPos="188.17">
        <route edges="E_S_in E_E_out"/>
    </vehicle>
    <vehicle id="33" depart="33.00" departPos="68.88" arrivalPos="104.44">
        <route edges="E_E_in E_E_out"/>
    </vehicle>
    <vehicle id="35" depart="35.00" departPos="178.16" arrivalPos="11.49">
        <route edges="E_N_in E_W_out"/>
    </vehicle>
    <vehicle id="36" depart="36.00" departPos="142.18" arrivalPos="102.70">
        <route edges="E_S_in E_S_out"/>
    </vehicle>
    <vehicle id="37" depart="37.00" departPos="107.19" arrivalPos="159.26">
        <route edges="E_N_in E_W_out"/>
    </vehicle>
    <vehicle id="38" depart="38.00" departPos="131.38" arrivalPos="20.70">
        <route edges="E_E_in E_S_out"/>
    </vehicle>
    <vehicle id="41" depart="41.00" departPos="34.38" arrivalPos="106.78">
        <route edges="E_S_in E_S_out"/>
    </vehicle>
    <vehicle id="42" depart="42.00" departPos="152.17" arrivalPos="172.59">
        <route edges="E_S_in E_W_out"/>
    </vehicle>
    <vehicle id="43" depart="43.00" departPos="39.72" arrivalPos="61.12">
        <route edges="E_W_in E_N_out"/>
    </vehicle>
    <vehicle id="44" depart="44.00" departPos="176.11" arrivalPos="92.85">
        <route edges="E_N_in E_W_out"/>
    </vehicle>
    <vehicle id="45" depart="45.00" departPos="52.53" arrivalPos="128.28">
        <route edges="E_W_in E_W_out"/>
    </vehicle>
    <vehicle id="46" depart="46.00" departPos="128.31" arrivalPos="171.83">
        <route edges="E_W_in E_S_out"/>
    </vehicle>
    <vehicle id="47" depart="47.00" departPos="152.77" arrivalPos="124.61">
        <route edges="E_S_in E_S_out"/>
    </vehicle>
    <vehicle id="48" depart="48.00" departPos="65.34" arrivalPos="159.54">
        <route edges="E_N_in E_E_out"/>
    </vehicle>
    <vehicle id="49" depart="49.00" departPos="161.87" arrivalPos="21.04">
        <route edges="E_N_in E_N_out"/>
    </vehicle>
    <vehicle id="50" depart="50.00" departPos="119.50" arrivalPos="85.43">
        <route edges="E_W_in E_S_out"/>
    </vehicle>
    <vehicle id="51" depart="51.00" departPos="168.69" arrivalPos="185.62">
        <route edges="E_E_in E_N_out"/>
    </vehicle>
    <vehicle id="52" depart="52.00" departPos="32.32" arrivalPos="170.05">
        <route edges="E_W_in E_W_out"/>
    </vehicle>
    <vehicle id="53" depart="53.00" departPos="56.76" arrivalPos="160.00">
        <route edges="E_W_in E_W_out"/>
    </vehicle>
    <vehicle id="54" depart="54.00" departPos="0.12" arrivalPos="51.20">
        <route edges="E_N_in E_E_out"/>
    </vehicle>
    <vehicle id="56" depart="56.00" departPos="47.88" arrivalPos="73.17">
        <route edges="E_W_in E_S_out"/>
    </vehicle>
    <vehicle id="57" depart="57.00" departPos="146.75" arrivalPos="84.01">
        <route edges="E_W_in E_W_out"/>
    </vehicle>
    <vehicle id="58" depart="58.00" departPos="177.17" arrivalPos="104.44">
        <route edges="E_E_in E_N_out"/>
    </vehicle>
    <vehicle id="59" depart="59.00" departPos="164.31" arrivalPos="144.41">
        <route edges="E_E_in E_S_out"/>
    </vehicle>
    <vehicle id="60" depart="60.00" departPos="87.52" arrivalPos="133.08">
        <route edges="E_S_in E_W_out"/>
    </vehicle>
    <vehicle id="62" depart="62.00" departPos="153.15" arrivalPos="56.55">
        <route edges="E_N_in E_N_out"/>
    </vehicle>
    <vehicle id="63" depart="63.00" departPos="54.48" arrivalPos="108.10">
        <route edges="E_E_in E_N_out"/>
    </vehicle>
    <vehicle id="64" depart="64.00" departPos="49.06" arrivalPos="12.99">
        <route edges="E_W_in E_S_out"/>
    </vehicle>
    <vehicle id="65" depart="65.00" departPos="66.45" arrivalPos="94.50">
        <route edges="E_N_in E_N_out"/>
    </vehicle>
    <vehicle id="66" depart="66.00" departPos="64.04" arrivalPos="40.32">
        <route edges="E_E_in E_E_out"/>
    </vehicle>
    <vehicle id="68" depart="68.00" departPos="137.83" arrivalPos="152.47">
        <route edges="E_N_in E_E_out"/>
    </vehicle>
    <vehicle id="69" depart="69.00" departPos="32.01" arrivalPos="128.89">
        <route edges="E_W_in E_S_out"/>
    </vehicle>
    <vehicle id="71" depart="71.00" departPos="11.57" arrivalPos="126.59">
        <route edges="E_E_in E_E_out"/>
    </vehicle>
    <vehicle id="73" depart="73.00" departPos="92.11" arrivalPos="108.05">
        <route edges="E_E_in E_N_out"/>
    </vehicle>
    <vehicle id="74" depart="74.00" departPos="120.14" arrivalPos="139.28">
        <route edges="E_N_in E_N_out"/>
    </vehicle>
    <vehicle id="76" depart="76.00" departPos="58.71" arrivalPos="123.58">
        <route edges="E_E_in E_S_out"/>
    </vehicle>
    <vehicle id="78" depart="78.00" departPos="7.96" arrivalPos="27.11">
        <route edges="E_W_in E_S_out"/>
    </vehicle>
    <vehicle id="79" depart="79.00" departPos="89.83" arrivalPos="177.23">
        <route edges="E_S_in E_S_out"/>
    </vehicle>
    <vehicle id="80" depart="80.00" departPos="95.71" arrivalPos="117.41">
        <route edges="E_E_in E_S_out"/>
    </vehicle>
    <vehicle id="82" depart="82.00" departPos="112.37" arrivalPos="183.72">
        <route edges="E_S_in E_S_out"/>
    </vehicle>
    <vehicle id="83" depart="83.00" departPos="110.07" arrivalPos="85.46">
        <route edges="E_W_in E_N_out"/>
    </vehicle>
    <vehicle id="87" depart="87.00" departPos="84.02" arrivalPos="86.09">
        <route edges="E_E_in E_S_out"/>
    </vehicle>
    <vehicle id="88" depart="88.00" departPos="3.50" arrivalPos="180.60">
        <route edges="E_S_in E_E_out"/>
    </vehicle>
    <vehicle id="89" depart="89.00" departPos="46.40" arrivalPos="166.55">
        <route edges="E_S_in E_W_out"/>
    </vehicle>
    <vehicle id="92" depart="92.00" departPos="174.17" arrivalPos="47.64">
        <route edges="E_S_in E_S_out"/>
    </vehicle>
    <vehicle id="93" depart="93.00" departPos="18.28" arrivalPos="1.62">
        <route edges="E_W_in E_W_out"/>
    </vehicle>
    <vehicle id="94" depart="94.00" departPos="159.17" arrivalPos="106.07">
        <route edges="E_N_in E_E_out"/>
    </vehicle>
    <vehicle id="95" depart="95.00" departPos="141.14" arrivalPos="70.68">
        <route edges="E_N_in E_W_out"/>
    </vehicle>
    <vehicle id="96" depart="96.00" departPos="13.59" arrivalPos="152.87">
        <route edges="E_W_in E_S_out"/>
    </vehicle>
    <vehicle id="97" depart="97.00" departPos="131.13" arrivalPos="12.24">
        <route edges="E_N_in E_E_out"/>
    </vehicle>
    <vehicle id="99" depart="99.00" departPos="176.45" arrivalPos="161.61">
        <route edges="E_S_in E_E_out"/>
    </vehicle>
    <vehicle id="100" depart="100.00" departPos="12.81" arrivalPos="51.62">
        <route edges="E_W_in E_N_out"/>
    </vehicle>
    <vehicle id="101" depart="101.00" departPos="179.09" arrivalPos="27.19">
        <route edges="E_E_in E_S_out"/>
    </vehicle>
    <vehicle id="102" depart="102.00" departPos="103.80" arrivalPos="185.80">
        <route edges="E_W_in E_W_out"/>
    </vehicle>
    <vehicle id="104" depart="104.00" departPos="63.65" arrivalPos="120.41">
        <route edges="E_S_in E_S_out"/>
    </vehicle>
    <vehicle id="106" depart="106.00" departPos="115.75" arrivalPos="18.36">
        <route edges="E_S_in E_W_out"/>
    </vehicle>
    <vehicle id="107" depart="107.00" departPos="41.87" arrivalPos="135.17">
        <route edges="E_N_in E_E_out"/>
    </vehicle>
    <vehicle id="108" depart="108.00" departPos="175.38" arrivalPos="159.44">
        <route edges="E_E_in E_E_out"/>
    </vehicle>
    <vehicle id="109" depart="109.00" departPos="12.68" arrivalPos="50.67">
        <route edges="E_E_in E_S_out"/>
    </vehicle>
    <vehicle id="110" depart="110.00" departPos="57.38" arrivalPos="98.22">
        <route edges="E_E_in E_S_out"/>
    </vehicle>
    <vehicle id="111" depart="111.00" departPos="52.66" arrivalPos="62.78">
        <route edges="E_N_in E_W_out"/>
    </vehicle>
    <vehicle id="112" depart="112.00" departPos="9.97" arrivalPos="115.68">
        <route edges="E_S_in E_E_out"/>
    </vehicle>
    <vehicle id="113" depart="113.00" departPos="57.14" arrivalPos="39.89">
        <route edges="E_S_in E_S_out"/>
    </vehicle>
    <vehicle id="116" depart="116.00" departPos="141.67" arrivalPos="122.95">
        <route edges="E_S_in E_S_out"/>
    </vehicle>
    <vehicle id="118" depart="118.00" departPos="150.30" arrivalPos="103.07">
        <route edges="E_E_in E_N_out"/>
    </vehicle>
    <vehicle id="119" depart="119.00" departPos="128.43" arrivalPos="103.08">
        <route edges="E_N_in E_W_out"/>
    </vehicle>
    <vehicle id="120" depart="120.00" departPos="5.42" arrivalPos="125.57">
        <route edges="E_W_in E_N_out"/>
    </vehicle>
    <vehicle id="121" depart="121.00" departPos="90.39" arrivalPos="117.45">
        <route edges="E_W_in E_S_out"/>
    </vehicle>
    <vehicle id="122" depart="122.00" departPos="33.12" arrivalPos="75.63">
        <route edges="E_S_in E_S_out"/>
    </vehicle>
    <vehicle id="123" depart="123.00" departPos="26.93" arrivalPos="72.92">
        <route edges="E_S_in E_S_out"/>
    </vehicle>
    <vehicle id="125" depart="125.00" departPos="81.94" arrivalPos="14.13">
        <route edges="E_S_in E_E_out"/>
    </vehicle>
    <vehicle id="126" depart="126.00" departPos="172.33" arrivalPos="189.27">
        <route edges="E_W_in E_S_out"/>
    </vehicle>
    <vehicle id="127" depart="127.00" departPos="64.82" arrivalPos="127.57">
        <route edges="E_S_in E_E_out"/>
    </vehicle>
    <vehicle id="130" depart="130.00" departPos="30.47" arrivalPos="155.70">
        <route edges="E_N_in E_N_out"/>
    </vehicle>
    <vehicle id="131" depart="131.00" departPos="31.94" arrivalPos="137.55">
        <route edges="E_E_in E_E_out"/>
    </vehicle>
    <vehicle id="132" depart="132.00" departPos="8.73" arrivalPos="179.85">
        <route edges="E_S_in E_S_out"/>
    </vehicle>
    <vehicle id="135" depart="135.00" departPos="142.63" arrivalPos="14.66">
        <route edges="E_E_in E_N_out"/>
    </vehicle>
    <vehicle id="137" depart="137.00" departPos="189.28" arrivalPos="39.95">
        <route edges="E_W_in E_W_out"/>
    </vehicle>
    <vehicle id="138" depart="138.00" departPos="158.32" arrivalPos="42.86">
        <route edges="E_N_in E_W_out"/>
    </vehicle>
    <vehicle id="139" depart="139.00" departPos="28.98" arrivalPos="172.11">
        <route edges="E_N_in E_E_out"/>
    </vehicle>
    <vehicle id="141" depart="141.00" departPos="62.56" arrivalPos="143.92">
        <route edges="E_S_in E_W_out"/>
    </vehicle>
    <vehicle id="142" depart="142.00" departPos="26.31" arrivalPos="61.52">
        <route edges="E_S_in E_S_out"/>
    </vehicle>
    <vehicle id="144" depart="144.00" departPos="66.95" arrivalPos="163.96">
        <route edges="E_W_in E_S_out"/>
    </vehicle>
    <vehicle id="146" depart="146.00" departPos="176.35" arrivalPos="151.10">
        <route edges="E_S_in E_E_out"/>
    </vehicle>
    <vehicle id="148" depart="148.00" departPos="134.89" arrivalPos="118.24">
        <route edges="E_N_in E_E_out"/>
    </vehicle>
    <vehicle id="150" depart="150.00" departPos="133.79" arrivalPos="154.77">
        <route edges="E_S_in E_E_out"/>
    </vehicle>
    <vehicle id="151" depart="151.00" departPos="90.57" arrivalPos="69.44">
        <route edges="E_E_in E_S_out"/>
    </vehicle>
    <vehicle id="153" depart="153.00" departPos="87.81" arrivalPos="23.44">
        <route edges="E_S_in E_S_out"/>
    </vehicle>
    <vehicle id="154" depart="154.00" departPos="14.98" arrivalPos="126.34">
        <route edges="E_N_in E_N_out"/>
    </vehicle>
    <vehicle id="155" depart="155.00" departPos="42.03" arrivalPos="188.70">
        <route edges="E_E_in E_E_out"/>
    </vehicle>
    <vehicle id="156" depart="156.00" departPos="162.51" arrivalPos="80.20">
        <route edges="E_N_in E_N_out"/>
    </vehicle>
    <vehicle id="158" depart="158.00" departPos="152.46" arrivalPos="70.27">
        <route edges="E_W_in E_W_out"/>
    </vehicle>
    <vehicle id="159" depart="159.00" departPos="48.36" arrivalPos="117.41">
        <route edges="E_N_in E_N_out"/>
    </vehicle>
    <vehicle id="160" depart="160.00" departPos="67.31" arrivalPos="62.46">
        <route edges="E_S_in E_W_out"/>
    </vehicle>
    <vehicle id="161" depart="161.00" departPos="18.46" arrivalPos="127.36">
        <route edges="E_W_in E_S_out"/>
    </vehicle>
    <vehicle id="162" depart="162.00" departPos="129.32" arrivalPos="114.61">
        <route edges="E_W_in E_W_out"/>
    </vehicle>
    <vehicle id="163" depart="163.00" departPos="59.25" arrivalPos="121.13">
        <route edges="E_S_in E_E_out"/>
    </vehicle>
    <vehicle id="165" depart="165.00" departPos="181.96" arrivalPos="82.40">
        <route edges="E_W_in E_N_out"/>
    </vehicle>
    <vehicle id="166" depart="166.00" departPos="174.18" arrivalPos="168.44">
        <route edges="E_E_in E_N_out"/>
    </vehicle>
    <vehicle id="167" depart="167.00" departPos="3.77" arrivalPos="186.96">
        <route edges="E_N_in E_W_out"/>
    </vehicle>
    <vehicle id="168" depart="168.00" departPos="137.10" arrivalPos="138.59">
        <route edges="E_N_in E_E_out"/>
    </vehicle>
    <vehicle id="169" depart="169.00" departPos="72.70" arrivalPos="145.14">
        <route edges="E_S_in E_S_out"/>
    </vehicle>
    <vehicle id="170" depart="170.00" departPos="92.67" arrivalPos="37.05">
        <route edges="E_W_in E_W_out"/>
    </vehicle>
    <vehicle id="171" depart="171.00" departPos="56.90" arrivalPos="59.33">
        <route edges="E_S_in E_E_out"/>
    </vehicle>
    <vehicle id="172" depart="172.00" departPos="80.64" arrivalPos="99.69">
        <route edges="E_N_in E_E_out"/>
    </vehicle>
    <vehicle id="173" depart="173.00" departPos="29.14" arrivalPos="35.14">
        <route edges="E_S_in E_W_out"/>
    </vehicle>
    <vehicle id="175" depart="175.00" departPos="112.99" arrivalPos="172.06">
        <route edges="E_S_in E_S_out"/>
    </vehicle>
    <vehicle id="176" depart="176.00" departPos="173.19" arrivalPos="63.98">
        <route edges="E_S_in E_S_out"/>
    </vehicle>
    <vehicle id="177" depart="177.00" departPos="152.32" arrivalPos="146.80">
        <route edges="E_N_in E_W_out"/>
    </vehicle>
    <vehicle id="179" depart="179.00" departPos="79.83" arrivalPos="97.76">
        <route edges="E_E_in E_S_out"/>
    </vehicle>
    <vehicle id="180" depart="180.00" departPos="16.83" arrivalPos="177.43">
        <route edges="E_N_in E_W_out"/>
    </vehicle>
    <vehicle id="181" depart="181.00" departPos="38.80" arrivalPos="176.30">
        <route edges="E_N_in E_E_out"/>
    </vehicle>
    <vehicle id="182" depart="182.00" departPos="156.46" arrivalPos="153.86">
        <route edges="E_E_in E_S_out"/>
    </vehicle>
    <vehicle id="183" depart="183.00" departPos="140.72" arrivalPos="148.81">
        <route edges="E_W_in E_S_out"/>
    </vehicle>
    <vehicle id="184" depart="184.00" departPos="58.45" arrivalPos="70.70">
        <route edges="E_S_in E_E_out"/>
    </vehicle>
    <vehicle id="185" depart="185.00" departPos="145.32" arrivalPos="183.29">
        <route edges="E_W_in E_N_out"/>
    </vehicle>
    <vehicle id="186" depart="186.00" departPos="4.13" arrivalPos="41.46">
        <route edges="E_W_in E_W_out"/>
    </vehicle>
    <vehicle id="187" depart="187.00" departPos="173.03" arrivalPos="177.78">
        <route edges="E_S_in E_E_out"/>
    </vehicle>
    <vehicle id="190" depart="190.00" departPos="181.71" arrivalPos="124.54">
        <route edges="E_W_in E_S_out"/>
    </vehicle>
    <vehicle id="191" depart="191.00" departPos="133.13" arrivalPos="140.59">
        <route edges="E_S_in E_S_out"/>
    </vehicle>
    <vehicle id="192" depart="192.00" departPos="34.13" arrivalPos="180.14">
        <route edges="E_S_in E_S_out"/>
    </vehicle>
    <vehicle id="193" depart="193.00" departPos="50.81" arrivalPos="109.06">
        <route edges="E_N_in E_E_out"/>
    </vehicle>
    <vehicle id="195" depart="195.00" departPos="166.94" arrivalPos="155.49">
        <route edges="E_N_in E_W_out"/>
    </vehicle>
    <vehicle id="196" depart="196.00" departPos="101.38" arrivalPos="146.32">
        <route edges="E_W_in E_W_out"/>
    </vehicle>
    <vehicle id="197" depart="197.00" departPos="37.71" arrivalPos="135.42">
        <route edges="E_W_in E_S_out"/>
    </vehicle>
    <vehicle id="198" depart="198.00" departPos="84.07" arrivalPos="55.41">
        <route edges="E_S_in E_W_out"/>
    </vehicle>
    <vehicle id="199" depart="199.00" departPos="189.48" arrivalPos="186.26">
        <route edges="E_N_in E_E_out"/>
    </vehicle>
    <vehicle id="200" depart="200.00" departPos="166.55" arrivalPos="17.73">
        <route edges="E_N_in E_N_out"/>
    </vehicle>
    <vehicle id="201" depart="201.00" departPos="76.77" arrivalPos="111.32">
        <route edges="E_E_in E_S_out"/>
    </vehicle>
    <vehicle id="202" depart="202.00" departPos="57.56" arrivalPos="179.16">
        <route edges="E_W_in E_W_out"/>
    </vehicle>
    <vehicle id="203" depart="203.00" departPos="70.50" arrivalPos="10.52">
        <route edges="E_E_in E_N_out"/>
    </vehicle>
    <vehicle id="204" depart="204.00" departPos="51.89" arrivalPos="132.05">
        <route edges="E_S_in E_W_out"/>
    </vehicle>
    <vehicle id="206" depart="206.00" departPos="110.93" arrivalPos="102.07">
        <route edges="E_S_in E_S_out"/>
    </vehicle>
    <vehicle id="207" depart="207.00" departPos="120.58" arrivalPos="8.50">
        <route edges="E_W_in E_S_out"/>
    </vehicle>
    <vehicle id="211" depart="211.00" departPos="75.81" arrivalPos="127.46">
        <route edges="E_S_in E_S_out"/>
    </vehicle>
    <vehicle id="212" depart="212.00" departPos="118.47" arrivalPos="13.16">
        <route edges="E_E_in E_N_out"/>
    </vehicle>
    <vehicle id="213" depart="213.00" departPos="98.23" arrivalPos="14.98">
        <route edges="E_S_in E_S_out"/>
    </vehicle>
    <vehicle id="215" depart="215.00" departPos="73.16" arrivalPos="68.07">
        <route edges="E_N_in E_N_out"/>
    </vehicle>
    <vehicle id="216" depart="216.00" departPos="34.24" arrivalPos="63.05">
        <route edges="E_N_in E_E_out"/>
    </vehicle>
    <vehicle id="218" depart="218.00" departPos="156.29" arrivalPos="183.12">
        <route edges="E_E_in E_S_out"/>
    </vehicle>
    <vehicle id="219" depart="219.00" departPos="81.55" arrivalPos="92.60">
        <route edges="E_S_in E_W_out"/>
    </vehicle>
    <vehicle id="220" depart="220.00" departPos="151.44" arrivalPos="148.58">
        <route edges="E_N_in E_N_out"/>
    </vehicle>
    <vehicle id="221" depart="221.00" departPos="103.14" arrivalPos="113.70">
        <route edges="E_S_in E_E_out"/>
    </vehicle>
    <vehicle id="222" depart="222.00" departPos="114.49" arrivalPos="102.46">
        <route edges="E_W_in E_N_out"/>
    </vehicle>
    <vehicle id="223" depart="223.00" departPos="33.65" arrivalPos="72.08">
        <route edges="E_W_in E_S_out"/>
    </vehicle>
    <vehicle id="224" depart="224.00" departPos="134.46" arrivalPos="98.83">
        <route edges="E_S_in E_W_out"/>
    </vehicle>
    <vehicle id="225" depart="225.00" departPos="16.71" arrivalPos="141.55">
        <route edges="E_E_in E_E_out"/>
    </vehicle>
    <vehicle id="228" depart="228.00" departPos="123.01" arrivalPos="57.81">
        <route edges="E_E_in E_N_out"/>
    </vehicle>
    <vehicle id="229" depart="229.00" departPos="145.34" arrivalPos="148.91">
        <route edges="E_W_in E_N_out"/>
    </vehicle>
    <vehicle id="230" depart="230.00" departPos="151.85" arrivalPos="46.75">
        <route edges="E_N_in E_W_out"/>
    </vehicle>
    <vehicle id="231" depart="231.00" departPos="60.47" arrivalPos="159.03">
        <route edges="E_E_in E_S_out"/>
    </vehicle>
    <vehicle id="233" depart="233.00" departPos="11.48" arrivalPos="84.80">
        <route edges="E_W_in E_W_out"/>
    </vehicle>
    <vehicle id="234" depart="234.00" departPos="70.90" arrivalPos="114.43">
        <route edges="E_E_in E_E_out"/>
    </vehicle>
    <vehicle id="235" depart="235.00" departPos="30.60" arrivalPos="112.00">
        <route edges="E_E_in E_S_out"/>
    </vehicle>
    <vehicle id="236" depart="236.00" departPos="11.89" arrivalPos="128.65">
        <route edges="E_W_in E_W_out"/>
    </vehicle>
    <vehicle id="237" depart="237.00" departPos="116.61" arrivalPos="83.70">
        <route edges="E_S_in E_E_out"/>
    </vehicle>
    <vehicle id="241" depart="241.00" departPos="71.73" arrivalPos="137.39">
        <route edges="E_E_in E_N_out"/>
    </vehicle>
    <vehicle id="242" depart="242.00" departPos="75.75" arrivalPos="152.95">
        <route edges="E_E_in E_E_out"/>
    </vehicle>
    <vehicle id="243" depart="243.00" departPos="35.32" arrivalPos="15.77">
        <route edges="E_N_in E_W_out"/>
    </vehicle>
    <vehicle id="244" depart="244.00" departPos="60.78" arrivalPos="91.74">
        <route edges="E_E_in E_N_out"/>
    </vehicle>
    <vehicle id="246" depart="246.00" departPos="150.21" arrivalPos="32.76">
        <route edges="E_S_in E_S_out"/>
    </vehicle>
    <vehicle id="247" depart="247.00" departPos="2.09" arrivalPos="0.75">
        <route edges="E_N_in E_N_out"/>
    </vehicle>
    <vehicle id="248" depart="248.00" departPos="115.81" arrivalPos="100.68">
        <route edges="E_N_in E_E_out"/>
    </vehicle>
    <vehicle id="249" depart="249.00" departPos="142.74" arrivalPos="179.19">
        <route edges="E_E_in E_E_out"/>
    </vehicle>
    <vehicle id="251" depart="251.00" departPos="128.11" arrivalPos="9.62">
        <route edges="E_N_in E_E_out"/>
    </vehicle>
    <vehicle id="252" depart="252.00" departPos="37.28" arrivalPos="98.00">
        <route edges="E_N_in E_E_out"/>
    </vehicle>
    <vehicle id="253" depart="253.00" departPos="164.36" arrivalPos="150.65">
        <route edges="E_W_in E_W_out"/>
    </vehicle>
    <vehicle id="255" depart="255.00" departPos="121.94" arrivalPos="138.14">
        <route edges="E_N_in E_E_out"/>
    </vehicle>
    <vehicle id="257" depart="257.00" departPos="47.12" arrivalPos="118.80">
        <route edges="E_N_in E_W_out"/>
    </vehicle>
    <vehicle id="258" depart="258.00" departPos="105.38" arrivalPos="135.42">
        <route edges="E_S_in E_W_out"/>
    </vehicle>
    <vehicle id="259" depart="259.00" departPos="142.13" arrivalPos="50.02">
        <route edges="E_N_in E_N_out"/>
    </vehicle>
    <vehicle id="260" depart="260.00" departPos="159.30" arrivalPos="74.81">
        <route edges="E_S_in E_S_out"/>
    </vehicle>
    <vehicle id="261" depart="261.00" departPos="138.88" arrivalPos="68.09">
        <route edges="E_W_in E_W_out"/>
    </vehicle>
    <vehicle id="262" depart="262.00" departPos="71.44" arrivalPos="12.47">
        <route edges="E_W_in E_W_out"/>
    </vehicle>
    <vehicle id="263" depart="263.00" departPos="178.19" arrivalPos="50.45">
        <route edges="E_E_in E_E_out"/>
    </vehicle>
    <vehicle id="264" depart="264.00" departPos="137.37" arrivalPos="124.12">
        <route edges="E_N_in E_W_out"/>
    </vehicle>
    <vehicle id="265" depart="265.00" departPos="57.91" arrivalPos="166.95">
        <route edges="E_E_in E_S_out"/>
    </vehicle>
    <vehicle id="268" depart="268.00" departPos="81.53" arrivalPos="95.26">
        <route edges="E_N_in E_W_out"/>
    </vehicle>
    <vehicle id="269" depart="269.00" departPos="38.04" arrivalPos="99.76">
        <route edges="E_W_in E_W_out"/>
    </vehicle>
    <vehicle id="270" depart="270.00" departPos="158.94" arrivalPos="114.56">
        <route edges="E_S_in E_S_out"/>
    </vehicle>
    <vehicle id="271" depart="271.00" departPos="178.10" arrivalPos="51.43">
        <route edges="E_E_in E_N_out"/>
    </vehicle>
    <vehicle id="272" depart="272.00" departPos="99.28" arrivalPos="75.75">
        <route edges="E_N_in E_W_out"/>
    </vehicle>
    <vehicle id="273" depart="273.00" departPos="119.73" arrivalPos="47.72">
        <route edges="E_E_in E_S_out"/>
    </vehicle>
    <vehicle id="275" depart="275.00" departPos="15.13" arrivalPos="40.15">
        <route edges="E_W_in E_S_out"/>
    </vehicle>
    <vehicle id="276" depart="276.00" departPos="39.28" arrivalPos="23.97">
        <route edges="E_S_in E_S_out"/>
    </vehicle>
    <vehicle id="277" depart="277.00" departPos="37.89" arrivalPos="124.43">
        <route edges="E_S_in E_S_out"/>
    </vehicle>
    <vehicle id="278" depart="278.00" departPos="158.70" arrivalPos="83.95">
        <route edges="E_S_in E_S_out"/>
    </vehicle>
    <vehicle id="279" depart="279.00" departPos="5.18" arrivalPos="89.86">
        <route edges="E_W_in E_W_out"/>
    </vehicle>
    <vehicle id="280" depart="280.00" departPos="169.58" arrivalPos="132.32">
        <route edges="E_S_in E_S_out"/>
    </vehicle>
    <vehicle id="281" depart="281.00" departPos="54.55" arrivalPos="157.70">
        <route edges="E_E_in E_E_out"/>
    </vehicle>
    <vehicle id="282" depart="282.00" departPos="148.03" arrivalPos="135.40">
        <route edges="E_W_in E_S_out"/>
    </vehicle>
    <vehicle id="283" depart="283.00" departPos="146.85" arrivalPos="11.37">
        <route edges="E_S_in E_E_out"/>
    </vehicle>
    <vehicle id="284" depart="284.00" departPos="15.40" arrivalPos="128.98">
        <route edges="E_S_in E_W_out"/>
    </vehicle>
    <vehicle id="285" depart="285.00" departPos="105.32" arrivalPos="102.45">
        <route edges="E_E_in E_S_out"/>
    </vehicle>
    <vehicle id="287" depart="287.00" departPos="127.76" arrivalPos="37.64">
        <route edges="E_N_in E_N_out"/>
    </vehicle>
    <vehicle id="289" depart="289.00" departPos="35.46" arrivalPos="153.30">
        <route edges="E_N_in E_E_out"/>
    </vehicle>
    <vehicle id="290" depart="290.00" departPos="36.64" arrivalPos="112.21">
        <route edges="E_N_in E_N_out"/>
    </vehicle>
    <vehicle id="292" depart="292.00" departPos="84.43" arrivalPos="180.15">
        <route edges="E_N_in E_W_out"/>
    </vehicle>
    <vehicle id="293" depart="293.00" departPos="2.22" arrivalPos="13.29">
        <route edges="E_E_in E_E_out"/>
    </vehicle>
    <vehicle id="294" depart="294.00" departPos="139.33" arrivalPos="142.09">
        <route edges="E_S_in E_S_out"/>
    </vehicle>
    <vehicle id="295" depart="295.00" departPos="109.65" arrivalPos="51.91">
        <route edges="E_N_in E_W_out"/>
    </vehicle>
    <vehicle id="296" depart="296.00" departPos="138.05" arrivalPos="159.78">
        <route edges="E_N_in E_E_out"/>
    </vehicle>
    <vehicle id="297" depart="297.00" departPos="58.85" arrivalPos="102.77">
        <route edges="E_E_in E_E_out"/>
    </vehicle>
    <vehicle id="298" depart="298.00" departPos="85.87" arrivalPos="160.10">
        <route edges="E_E_in E_S_out"/>
    </vehicle>
    <vehicle id="299" depart="299.00" departPos="29.65" arrivalPos="168.96">
        <route edges="E_E_in E_N_out"/>
    </vehicle>
    <vehicle id="300" depart="300.00" departPos="79.33" arrivalPos="103.08">
        <route edges="E_S_in E_E_out"/>
    </vehicle>
    <vehicle id="301" depart="301.00" departPos="158.62" arrivalPos="8.12">
        <route edges="E_S_in E_S_out"/>
    </vehicle>
    <vehicle id="302" depart="302.00" departPos="41.60" arrivalPos="67.94">
        <route edges="E_W_in E_N_out"/>
    </vehicle>