<?xml version="1.0" encoding="UTF-8"?>

<!-- generated on 2024-02-06 00:01:29 by Eclipse SUMO netedit Version 1.19.0
<configuration xmlns:xsi="http://www.w3.org/2001/XMLSchema-instance" xsi:noNamespaceSchemaLocation="http://sumo.dlr.de/xsd/neteditConfiguration.xsd">

    <input>
        <sumocfg-file value="/home/juanma/Dev/SUMO_test/interseccion.sumocfg"/>
        <route-files value="/home/juanma/Dev/SUMO_test/routes.rou.xml"/>
        <sumo-net-file value="/home/juanma/Dev/SUMO_test/interseccion.net.xml"/>
    </input>

    <output>
        <output-file value="/home/juanma/Dev/SUMO_test/interseccion.net.xml"/>
    </output>

    <processing>
        <geometry.min-radius.fix.railways value="false"/>
        <geometry.max-grade.fix value="false"/>
        <offset.disable-normalization value="true"/>
        <lefthand value="0"/>
    </processing>

    <junctions>
        <no-turnarounds value="true"/>
        <junctions.corner-detail value="5"/>
        <junctions.limit-turn-speed value="5.50"/>
        <rectangular-lane-cut value="0"/>
    </junctions>

    <pedestrian>
        <walkingareas value="0"/>
    </pedestrian>

</configuration>
-->

<net version="1.16" junctionCornerDetail="5" limitTurnSpeed="5.50" xmlns:xsi="http://www.w3.org/2001/XMLSchema-instance" xsi:noNamespaceSchemaLocation="http://sumo.dlr.de/xsd/net_file.xsd">

    <location netOffset="0.00,0.00" convBoundary="0.00,-200.00,400.00,200.00" origBoundary="-10000000000.00,-10000000000.00,10000000000.00,10000000000.00" projParameter="!"/>

    <edge id=":J6_0" function="internal">
        <lane id=":J6_0_0" index="0" speed="6.51" length="9.03" shape="195.20,10.40 194.85,7.95 193.80,6.20 192.05,5.15 189.60,4.80"/>
    </edge>
    <edge id=":J6_1" function="internal">
        <lane id=":J6_1_0" index="0" speed="13.89" length="20.80" shape="195.20,10.40 195.20,-10.40"/>
        <lane id=":J6_1_1" index="1" speed="13.89" length="20.80" shape="198.40,10.40 198.40,-10.40"/>
    </edge>
    <edge id=":J6_3" function="internal">
        <lane id=":J6_3_0" index="0" speed="9.26" length="5.01" shape="198.40,10.40 199.11,5.44"/>
    </edge>
    <edge id=":J6_16" function="internal">
        <lane id=":J6_16_0" index="0" speed="9.26" length="14.34" shape="199.11,5.44 199.15,5.15 201.40,1.40 205.15,-0.85 210.40,-1.60"/>
    </edge>
    <edge id=":J6_4" function="internal">
        <lane id=":J6_4_0" index="0" speed="6.51" length="9.03" shape="210.40,4.80 207.95,5.15 206.20,6.20 205.15,7.95 204.80,10.40"/>
    </edge>
    <edge id=":J6_5" function="internal">
        <lane id=":J6_5_0" index="0" speed="13.89" length="20.80" shape="210.40,4.80 189.60,4.80"/>
        <lane id=":J6_5_1" index="1" speed="13.89" length="20.80" shape="210.40,1.60 189.60,1.60"/>
    </edge>
    <edge id=":J6_7" function="internal">
        <lane id=":J6_7_0" index="0" speed="9.26" length="5.01" shape="210.40,1.60 205.44,0.89"/>
    </edge>
    <edge id=":J6_17" function="internal">
        <lane id=":J6_17_0" index="0" speed="9.26" length="14.34" shape="205.44,0.89 205.15,0.85 201.40,-1.40 199.15,-5.15 198.40,-10.40"/>
    </edge>
    <edge id=":J6_8" function="internal">
        <lane id=":J6_8_0" index="0" speed="6.51" length="9.03" shape="204.80,-10.40 205.15,-7.95 206.20,-6.20 207.95,-5.15 210.40,-4.80"/>
    </edge>
    <edge id=":J6_9" function="internal">
        <lane id=":J6_9_0" index="0" speed="13.89" length="20.80" shape="204.80,-10.40 204.80,10.40"/>
        <lane id=":J6_9_1" index="1" speed="13.89" length="20.80" shape="201.60,-10.40 201.60,10.40"/>
    </edge>
    <edge id=":J6_11" function="internal">
        <lane id=":J6_11_0" index="0" speed="9.26" length="5.01" shape="201.60,-10.40 200.89,-5.44"/>
    </edge>
    <edge id=":J6_18" function="internal">
        <lane id=":J6_18_0" index="0" speed="9.26" length="14.34" shape="200.89,-5.44 200.85,-5.15 198.60,-1.40 194.85,0.85 189.60,1.60"/>
    </edge>
    <edge id=":J6_12" function="internal">
        <lane id=":J6_12_0" index="0" speed="6.51" length="9.03" shape="189.60,-4.80 192.05,-5.15 193.80,-6.20 194.85,-7.95 195.20,-10.40"/>
    </edge>
    <edge id=":J6_13" function="internal">
        <lane id=":J6_13_0" index="0" speed="13.89" length="20.80" shape="189.60,-4.80 210.40,-4.80"/>
        <lane id=":J6_13_1" index="1" speed="13.89" length="20.80" shape="189.60,-1.60 210.40,-1.60"/>
    </edge>
    <edge id=":J6_15" function="internal">
        <lane id=":J6_15_0" index="0" speed="9.26" length="5.01" shape="189.60,-1.60 194.56,-0.89"/>
    </edge>
    <edge id=":J6_19" function="internal">
        <lane id=":J6_19_0" index="0" speed="9.26" length="14.34" shape="194.56,-0.89 194.85,-0.85 198.60,1.40 200.85,5.15 201.60,10.40"/>
    </edge>

    <edge id="-EB" from="J6" to="J9" priority="-1">
        <lane id="-EB_0" index="0" speed="13.89" length="189.60" shape="195.20,-10.40 195.20,-200.00"/>
        <lane id="-EB_1" index="1" speed="13.89" length="189.60" shape="198.40,-10.40 198.40,-200.00"/>
    </edge>
    <edge id="-EL" from="J6" to="J5" priority="-1">
        <lane id="-EL_0" index="0" speed="13.89" length="189.60" shape="189.60,4.80 0.00,4.80"/>
        <lane id="-EL_1" index="1" speed="13.89" length="189.60" shape="189.60,1.60 0.00,1.60"/>
    </edge>
    <edge id="-ER" from="J6" to="J8" priority="-1">
        <lane id="-ER_0" index="0" speed="13.89" length="189.60" shape="210.40,-4.80 400.00,-4.80"/>
        <lane id="-ER_1" index="1" speed="13.89" length="189.60" shape="210.40,-1.60 400.00,-1.60"/>
    </edge>
    <edge id="-ET" from="J6" to="J7" priority="-1">
        <lane id="-ET_0" index="0" speed="13.89" length="189.60" shape="204.80,10.40 204.80,200.00"/>
        <lane id="-ET_1" index="1" speed="13.89" length="189.60" shape="201.60,10.40 201.60,200.00"/>
    </edge>
    <edge id="EB" from="J9" to="J6" priority="-1">
        <lane id="EB_0" index="0" speed="13.89" length="189.60" shape="204.80,-200.00 204.80,-10.40"/>
        <lane id="EB_1" index="1" speed="13.89" length="189.60" shape="201.60,-200.00 201.60,-10.40"/>
    </edge>
    <edge id="EL" from="J5" to="J6" priority="-1">
        <lane id="EL_0" index="0" speed="13.89" length="189.60" shape="0.00,-4.80 189.60,-4.80"/>
        <lane id="EL_1" index="1" speed="13.89" length="189.60" shape="0.00,-1.60 189.60,-1.60"/>
    </edge>
    <edge id="ER" from="J8" to="J6" priority="-1">
        <lane id="ER_0" index="0" speed="13.89" length="189.60" shape="400.00,4.80 210.40,4.80"/>
        <lane id="ER_1" index="1" speed="13.89" length="189.60" shape="400.00,1.60 210.40,1.60"/>
    </edge>
    <edge id="ET" from="J7" to="J6" priority="-1">
        <lane id="ET_0" index="0" speed="13.89" length="189.60" shape="195.20,200.00 195.20,10.40"/>
        <lane id="ET_1" index="1" speed="13.89" length="189.60" shape="198.40,200.00 198.40,10.40"/>
    </edge>

    <tlLogic id="J6" type="static" programID="0" offset="0">
        <phase duration="42" state="GGGgrrrrGGGgrrrr"/>
        <phase duration="3"  state="yyyyrrrryyyyrrrr"/>
        <phase duration="42" state="rrrrGGGgrrrrGGGg"/>
        <phase duration="3"  state="rrrryyyyrrrryyyy"/>
    </tlLogic>

    <junction id="J5" type="dead_end" x="0.00" y="0.00" incLanes="-EL_0 -EL_1" intLanes="" shape="0.00,0.00 0.00,6.40 0.00,0.00"/>
    <junction id="J6" type="traffic_light" x="200.00" y="0.00" incLanes="ET_0 ET_1 ER_0 ER_1 EB_0 EB_1 EL_0 EL_1" intLanes=":J6_0_0 :J6_1_0 :J6_1_1 :J6_16_0 :J6_4_0 :J6_5_0 :J6_5_1 :J6_17_0 :J6_8_0 :J6_9_0 :J6_9_1 :J6_18_0 :J6_12_0 :J6_13_0 :J6_13_1 :J6_19_0" shape="193.60,10.40 206.40,10.40 206.84,8.18 207.40,7.40 208.18,6.84 209.18,6.51 210.40,6.40 210.40,-6.40 208.18,-6.84 207.40,-7.40 206.84,-8.18 206.51,-9.18 206.40,-10.40 193.60,-10.40 193.16,-8.18 192.60,-7.40 191.82,-6.84 190.82,-6.51 189.60,-6.40 189.60,6.40 191.82,6.84 192.60,7.40 193.16,8.18 193.49,9.18">
        <request index="0"  response="0000000000000000" foes="0000000001100000" cont="0"/>
        <request index="1"  response="1000000010000000" foes="1111100011100000" cont="0"/>
        <request index="2"  response="1000000010000000" foes="1111100011100000" cont="0"/>
        <request index="3"  response="1000011010000000" foes="1110011011100000" cont="1"/>
        <request index="4"  response="0000011000000000" foes="0000011000000000" cont="0"/>
        <request index="5"  response="0000111000001111" foes="1000111000001111" cont="0"/>
        <request index="6"  response="0000111000001111" foes="1000111000001111" cont="0"/>
        <request index="7"  response="0110111000001110" foes="0110111000001110" cont="1"/>
        <request index="8"  response="0000000000000000" foes="0110000000000000" cont="0"/>
        <request index="9"  response="1000000010000000" foes="1110000011111000" cont="0"/>
        <request index="10" response="1000000010000000" foes="1110000011111000" cont="0"/>
        <request index="11" response="1000000010000110" foes="1110000011100110" cont="1"/>
        <request index="12" response="0000000000000110" foes="0000000000000110" cont="0"/>
        <request index="13" response="0000111100001110" foes="0000111110001110" cont="0"/>
        <request index="14" response="0000111100001110" foes="0000111110001110" cont="0"/>
        <request index="15" response="0000111001101110" foes="0000111001101110" cont="1"/>
    </junction>
    <junction id="J7" type="dead_end" x="200.00" y="200.00" incLanes="-ET_0 -ET_1" intLanes="" shape="200.00,200.00 206.40,200.00 200.00,200.00"/>
    <junction id="J8" type="dead_end" x="400.00" y="0.00" incLanes="-ER_0 -ER_1" intLanes="" shape="400.00,0.00 400.00,-6.40 400.00,0.00"/>
    <junction id="J9" type="dead_end" x="200.00" y="-200.00" incLanes="-EB_0 -EB_1" intLanes="" shape="200.00,-200.00 193.60,-200.00 200.00,-200.00"/>

    <junction id=":J6_16_0" type="internal" x="199.11" y="5.44" incLanes=":J6_3_0 EB_0 EB_1" intLanes=":J6_5_0 :J6_5_1 :J6_7_0 :J6_8_0 :J6_9_0 :J6_9_1 :J6_13_0 :J6_13_1 :J6_15_0"/>
    <junction id=":J6_17_0" type="internal" x="205.44" y="0.89" incLanes=":J6_7_0 EL_0 EL_1" intLanes=":J6_1_0 :J6_1_1 :J6_3_0 :J6_9_0 :J6_9_1 :J6_11_0 :J6_12_0 :J6_13_0 :J6_13_1"/>
    <junction id=":J6_18_0" type="internal" x="200.89" y="-5.44" incLanes=":J6_11_0 ET_0 ET_1" intLanes=":J6_0_0 :J6_1_0 :J6_1_1 :J6_5_0 :J6_5_1 :J6_7_0 :J6_13_0 :J6_13_1 :J6_15_0"/>
    <junction id=":J6_19_0" type="internal" x="194.56" y="-0.89" incLanes=":J6_15_0 ER_0 ER_1" intLanes=":J6_1_0 :J6_1_1 :J6_3_0 :J6_4_0 :J6_5_0 :J6_5_1 :J6_9_0 :J6_9_1 :J6_11_0"/>

    <connection from="EB" to="-ER" fromLane="0" toLane="0" via=":J6_8_0" tl="J6" linkIndex="8" dir="r" state="O"/>
    <connection from="EB" to="-ET" fromLane="0" toLane="0" via=":J6_9_0" tl="J6" linkIndex="9" dir="s" state="O"/>
    <connection from="EB" to="-ET" fromLane="1" toLane="1" via=":J6_9_1" tl="J6" linkIndex="10" dir="s" state="O"/>
    <connection from="EB" to="-EL" fromLane="1" toLane="1" via=":J6_11_0" tl="J6" linkIndex="11" dir="l" state="o"/>
    <connection from="EL" to="-EB" fromLane="0" toLane="0" via=":J6_12_0" tl="J6" linkIndex="12" dir="r" state="o"/>
    <connection from="EL" to="-ER" fromLane="0" toLane="0" via=":J6_13_0" tl="J6" linkIndex="13" dir="s" state="o"/>
    <connection from="EL" to="-ER" fromLane="1" toLane="1" via=":J6_13_1" tl="J6" linkIndex="14" dir="s" state="o"/>
    <connection from="EL" to="-ET" fromLane="1" toLane="1" via=":J6_15_0" tl="J6" linkIndex="15" dir="l" state="o"/>
    <connection from="ER" to="-ET" fromLane="0" toLane="0" via=":J6_4_0" tl="J6" linkIndex="4" dir="r" state="o"/>
    <connection from="ER" to="-EL" fromLane="0" toLane="0" via=":J6_5_0" tl="J6" linkIndex="5" dir="s" state="o"/>
    <connection from="ER" to="-EL" fromLane="1" toLane="1" via=":J6_5_1" tl="J6" linkIndex="6" dir="s" state="o"/>
    <connection from="ER" to="-EB" fromLane="1" toLane="1" via=":J6_7_0" tl="J6" linkIndex="7" dir="l" state="o"/>
    <connection from="ET" to="-EL" fromLane="0" toLane="0" via=":J6_0_0" tl="J6" linkIndex="0" dir="r" state="O"/>
    <connection from="ET" to="-EB" fromLane="0" toLane="0" via=":J6_1_0" tl="J6" linkIndex="1" dir="s" state="O"/>
    <connection from="ET" to="-EB" fromLane="1" toLane="1" via=":J6_1_1" tl="J6" linkIndex="2" dir="s" state="O"/>
    <connection from="ET" to="-ER" fromLane="1" toLane="1" via=":J6_3_0" tl="J6" linkIndex="3" dir="l" state="o"/>

    <connection from=":J6_0" to="-EL" fromLane="0" toLane="0" dir="r" state="M"/>
    <connection from=":J6_1" to="-EB" fromLane="0" toLane="0" dir="s" state="M"/>
    <connection from=":J6_1" to="-EB" fromLane="1" toLane="1" dir="s" state="M"/>
    <connection from=":J6_3" to="-ER" fromLane="0" toLane="1" via=":J6_16_0" dir="l" state="m"/>
    <connection from=":J6_16" to="-ER" fromLane="0" toLane="1" dir="l" state="M"/>
    <connection from=":J6_4" to="-ET" fromLane="0" toLane="0" dir="r" state="M"/>
    <connection from=":J6_5" to="-EL" fromLane="0" toLane="0" dir="s" state="M"/>
    <connection from=":J6_5" to="-EL" fromLane="1" toLane="1" dir="s" state="M"/>
    <connection from=":J6_7" to="-EB" fromLane="0" toLane="1" via=":J6_17_0" dir="l" state="m"/>
    <connection from=":J6_17" to="-EB" fromLane="0" toLane="1" dir="l" state="M"/>
    <connection from=":J6_8" to="-ER" fromLane="0" toLane="0" dir="r" state="M"/>
    <connection from=":J6_9" to="-ET" fromLane="0" toLane="0" dir="s" state="M"/>
    <connection from=":J6_9" to="-ET" fromLane="1" toLane="1" dir="s" state="M"/>
    <connection from=":J6_11" to="-EL" fromLane="0" toLane="1" via=":J6_18_0" dir="l" state="m"/>
    <connection from=":J6_18" to="-EL" fromLane="0" toLane="1" dir="l" state="M"/>
    <connection from=":J6_12" to="-EB" fromLane="0" toLane="0" dir="r" state="M"/>
    <connection from=":J6_13" to="-ER" fromLane="0" toLane="0" dir="s" state="M"/>
    <connection from=":J6_13" to="-ER" fromLane="1" toLane="1" dir="s" state="M"/>
    <connection from=":J6_15" to="-ET" fromLane="0" toLane="1" via=":J6_19_0" dir="l" state="m"/>
    <connection from=":J6_19" to="-ET" fromLane="0" toLane="1" dir="l" state="M"/>

</net>
