<?xml version="1.0" encoding="UTF-8"?>

<!-- generated on 2024-02-06 00:01:29 by Eclipse SUMO netedit Version 1.19.0
-->

<routes xmlns:xsi="http://www.w3.org/2001/XMLSchema-instance" xsi:noNamespaceSchemaLocation="http://sumo.dlr.de/xsd/routes_file.xsd">
    <!-- Vehicles, persons and containers (sorted by depart) -->
    <vehicle id="0" depart="1.00">
        <route edges="ET -ER"/>
    </vehicle>
    <vehicle id="1" depart="2.50">
        <route edges="ER -EB"/>
    </vehicle>
    <vehicle id="2" depart="4.00">
        <route edges="EB -ET"/>
    </vehicle>
    <vehicle id="3" depart="6.00">
        <route edges="EL -ET"/>
    </vehicle>
    <vehicle id="4" depart="10.00">
        <route edges="ER -EB"/>
    </vehicle>
    <vehicle id="5" depart="11.50">
        <route edges="ER -EB"/>
    </vehicle>
    <vehicle id="6" depart="14.00">
        <route edges="EB -ER"/>
    </vehicle>
    <vehicle id="7" depart="14.50">
        <route edges="EB -EL"/>
    </vehicle>
    <vehicle id="9" depart="26.50">
        <route edges="ET -EL"/>
    </vehicle>
    <vehicle id="10" depart="27.00">
        <route edges="EB -EL"/>
    </vehicle>
    <vehicle id="12" depart="31.50">
        <route edges="ET -ER"/>
    </vehicle>
    <vehicle id="13" depart="33.00">
        <route edges="EB -EL"/>
    </vehicle>
    <vehicle id="15" depart="37.00">
        <route edges="ET -ER"/>
    </vehicle>
    <vehicle id="16" depart="38.00">
        <route edges="ER -ET"/>
    </vehicle>
    <vehicle id="17" depart="38.50">
        <route edges="EB -ET"/>
    </vehicle>
    <vehicle id="18" depart="39.00">
        <route edges="EB -ER"/>
    </vehicle>
    <vehicle id="20" depart="43.50">
        <route edges="EB -EL"/>
    </vehicle>
    <vehicle id="21" depart="46.50">
        <route edges="ET -EL"/>
    </vehicle>
    <vehicle id="22" depart="49.50">
        <route edges="ER -EL"/>
    </vehicle>
    <vehicle id="23" depart="50.50">
        <route edges="EB -ET"/>
    </vehicle>
    <vehicle id="24" depart="51.50">
        <route edges="EL -ET"/>
    </vehicle>
    <vehicle id="25" depart="56.00">
        <route edges="ET -EB"/>
    </vehicle>
    <vehicle id="26" depart="56.50">
        <route edges="EL -EB"/>
    </vehicle>
    <vehicle id="27" depart="57.50">
        <route edges="EB -ET"/>
    </vehicle>
    <vehicle id="28" depart="57.50">
        <route edges="EL -ET"/>
    </vehicle>
    <vehicle id="29" depart="60.00">
        <route edges="EL -ER"/>
    </vehicle>
    <vehicle id="31" depart="64.50">
        <route edges="ER -EL"/>
    </vehicle>
    <vehicle id="32" depart="66.00">
        <route edges="ER -EB"/>
    </vehicle>
    <vehicle id="33" depart="68.00">
        <route edges="ER -EB"/>
    </vehicle>
    <vehicle id="34" depart="68.00">
        <route edges="EL -ET"/>
    </vehicle>
    <vehicle id="35" depart="70.50">
        <route edges="ET -EL"/>
    </vehicle>
    <vehicle id="36" depart="70.50">
        <route edges="ET -EL"/>
    </vehicle>
    <vehicle id="37" depart="76.50">
        <route edges="EL -EB"/>
    </vehicle>
    <vehicle id="38" depart="77.00">
        <route edges="ET -EB"/>
    </vehicle>
    <vehicle id="39" depart="77.00">
        <route edges="ET -EB"/>
    </vehicle>
    <vehicle id="40" depart="79.00">
        <route edges="EB -EL"/>
    </vehicle>
    <vehicle id="41" depart="79.00">
        <route edges="EL -EB"/>
    </vehicle>
    <vehicle id="42" depart="83.00">
        <route edges="EL -ET"/>
    </vehicle>
    <vehicle id="44" depart="86.50">
        <route edges="ET -EB"/>
    </vehicle>
    <vehicle id="45" depart="87.50">
        <route edges="ET -EL"/>
    </vehicle>
    <vehicle id="47" depart="94.00">
        <route edges="EB -ET"/>
    </vehicle>
    <vehicle id="48" depart="101.00">
        <route edges="EB -ER"/>
    </vehicle>
    <vehicle id="49" depart="102.50">
        <route edges="ET -EL"/>
    </vehicle>
    <vehicle id="50" depart="105.00">
        <route edges="EB -EL"/>
    </vehicle>
    <vehicle id="51" depart="105.50">
        <route edges="ET -EB"/>
    </vehicle>
    <vehicle id="55" depart="111.50">
        <route edges="ET -EB"/>
    </vehicle>
    <vehicle id="56" depart="115.50">
        <route edges="EB -ET"/>
    </vehicle>
    <vehicle id="58" depart="120.00">
        <route edges="EL -ER"/>
    </vehicle>
    <vehicle id="59" depart="125.50">
        <route edges="ET -EB"/>
    </vehicle>
    <vehicle id="60" depart="127.00">
        <route edges="ER -ET"/>
    </vehicle>
    <vehicle id="61" depart="127.00">
        <route edges="EB -ET"/>
    </vehicle>
    <vehicle id="62" depart="127.50">
        <route edges="EB -ER"/>
    </vehicle>
    <vehicle id="63" depart="130.00">
        <route edges="ET -EB"/>
    </vehicle>
    <vehicle id="65" depart="133.50">
        <route edges="EB -ET"/>
    </vehicle>
    <vehicle id="66" depart="138.00">
        <route edges="EB -ET"/>
    </vehicle>
    <vehicle id="67" depart="144.00">
        <route edges="EL -ER"/>
    </vehicle>
    <vehicle id="70" depart="151.50">
        <route edges="ET -EL"/>
    </vehicle>
    <vehicle id="71" depart="152.50">
        <route edges="EL -EB"/>
    </vehicle>
    <vehicle id="73" depart="154.50">
        <route edges="ER -EL"/>
    </vehicle>
    <vehicle id="74" depart="156.00">
        <route edges="ET -EL"/>
    </vehicle>
    <vehicle id="75" depart="156.50">
        <route edges="EB -EL"/>
    </vehicle>
    <vehicle id="76" depart="162.00">
        <route edges="EL -ER"/>
    </vehicle>
    <vehicle id="77" depart="163.50">
        <route edges="ET -EB"/>
    </vehicle>
    <vehicle id="78" depart="163.50">
        <route edges="ET -ER"/>
    </vehicle>
    <vehicle id="79" depart="164.50">
        <route edges="EB -EL"/>
    </vehicle>
    <vehicle id="80" depart="164.50">
        <route edges="ER -EL"/>
    </vehicle>
    <vehicle id="81" depart="168.00">
        <route edges="ET -EL"/>
    </vehicle>
    <vehicle id="82" depart="170.00">
        <route edges="ER -EL"/>
    </vehicle>
    <vehicle id="83" depart="171.00">
        <route edges="EL -EB"/>
    </vehicle>
    <vehicle id="84" depart="172.00">
        <route edges="ER -EB"/>
    </vehicle>
    <vehicle id="85" depart="173.00">
        <route edges="ET -EL"/>
    </vehicle>
    <vehicle id="86" depart="173.50">
        <route edges="ET -EL"/>
    </vehicle>
    <vehicle id="87" depart="174.50">
        <route edges="EL -ER"/>
    </vehicle>
    <vehicle id="90" depart="180.50">
        <route edges="ER -ET"/>
    </vehicle>
    <vehicle id="91" depart="181.50">
        <route edges="ER -ET"/>
    </vehicle>
    <vehicle id="92" depart="181.50">
        <route edges="ET -ER"/>
    </vehicle>
    <vehicle id="93" depart="185.00">
        <route edges="ET -EL"/>
    </vehicle>
    <vehicle id="96" depart="186.50">
        <route edges="EL -ER"/>
    </vehicle>
    <vehicle id="97" depart="186.50">
        <route edges="EL -ER"/>
    </vehicle>
    <vehicle id="98" depart="187.00">
        <route edges="ER -EL"/>
    </vehicle>
    <vehicle id="99" depart="188.00">
        <route edges="ER -EB"/>
    </vehicle>
    <vehicle id="102" depart="192.00">
        <route edges="ER -EB"/>
    </vehicle>
    <vehicle id="104" depart="195.00">
        <route edges="ER -EB"/>
    </vehicle>
    <vehicle id="106" depart="198.00">
        <route edges="ER -ET"/>
    </vehicle>
    <vehicle id="107" depart="200.50">
        <route edges="EL -EB"/>
    </vehicle>
    <vehicle id="110" depart="205.50">
        <route edges="ER -EB"/>
    </vehicle>
    <vehicle id="111" depart="207.00">
        <route edges="EB -ER"/>
    </vehicle>
    <vehicle id="112" depart="207.50">
        <route edges="EL -EB"/>
    </vehicle>
    <vehicle id="114" depart="210.00">
        <route edges="ER -EL"/>
    </vehicle>
    <vehicle id="115" depart="210.00">
        <route edges="EL -ET"/>
    </vehicle>
    <vehicle id="116" depart="213.00">
        <route edges="ER -EL"/>
    </vehicle>
    <vehicle id="117" depart="214.50">
        <route edges="ER -EL"/>
    </vehicle>
    <vehicle id="118" depart="215.50">
        <route edges="EL -ER"/>
    </vehicle>
    <vehicle id="119" depart="224.50">
        <route edges="ER -ET"/>
    </vehicle>
    <vehicle id="120" depart="225.00">
        <route edges="ER -EL"/>
    </vehicle>
    <vehicle id="121" depart="227.00">
        <route edges="ER -ET"/>
    </vehicle>
    <vehicle id="122" depart="229.00">
        <route edges="EL -ER"/>
    </vehicle>
    <vehicle id="123" depart="229.00">
        <route edges="EL -EB"/>
    </vehicle>
    <vehicle id="124" depart="236.00">
        <route edges="EB -ER"/>
    </vehicle>
    <vehicle id="125" depart="237.00">
        <route edges="ER -ET"/>
    </vehicle>
    <vehicle id="126" depart="237.50">
        <route edges="ET -ER"/>
    </vehicle>
    <vehicle id="127" depart="239.00">
        <route edges="EB -EL"/>
    </vehicle>
    <vehicle id="128" depart="240.00">
        <route edges="ET -ER"/>
    </vehicle>
    <vehicle id="129" depart="240.00">
        <route edges="ER -EB"/>
    </vehicle>
    <vehicle id="131" depart="242.00">
        <route edges="EB -EL"/>
    </vehicle>
    <vehicle id="132" depart="242.50">
        <route edges="EL -ER"/>
    </vehicle>
    <vehicle id="135" depart="246.50">
        <route edges="EL -EB"/>
    </vehicle>
    <vehicle id="136" depart="247.00">
        <route edges="EB -ER"/>
    </vehicle>
    <vehicle id="137" depart="247.00">
        <route edges="EL -ET"/>
    </vehicle>
    <vehicle id="138" depart="248.00">
        <route edges="ER -EB"/>
    </vehicle>
    <vehicle id="140" depart="249.00">
        <route edges="EB -EL"/>
    </vehicle>
    <vehicle id="141" depart="249.50">
        <route edges="ET -EL"/>
    </vehicle>
    <vehicle id="142" depart="252.00">
        <route edges="EL -ET"/>
    </vehicle>
    <vehicle id="143" depart="253.50">
        <route edges="ET -ER"/>
    </vehicle>
    <vehicle id="144" depart="256.00">
        <route edges="ET -EB"/>
    </vehicle>
    <vehicle id="145" depart="258.00">
        <route edges="EL -ET"/>
    </vehicle>
    <vehicle id="147" depart="259.00">
        <route edges="EL -EB"/>
    </vehicle>
    <vehicle id="148" depart="259.50">
        <route edges="EL -ET"/>
    </vehicle>
    <vehicle id="151" depart="261.50">
        <route edges="EL -ET"/>
    </vehicle>
    <vehicle id="152" depart="262.00">
        <route edges="ET -ER"/>
    </vehicle>
    <vehicle id="153" depart="263.50">
        <route edges="EL -ER"/>
    </vehicle>
    <vehicle id="154" depart="265.00">
        <route edges="ER -EL"/>
    </vehicle>
    <vehicle id="155" depart="267.50">
        <route edges="EB -EL"/>
    </vehicle>
    <vehicle id="156" depart="269.00">
        <route edges="ET -EL"/>
    </vehicle>
    <vehicle id="157" depart="269.00">
        <route edges="ER -ET"/>
    </vehicle>
    <vehicle id="159" depart="271.00">
        <route edges="EL -EB"/>
    </vehicle>
    <vehicle id="160" depart="274.50">
        <route edges="EL -ER"/>
    </vehicle>
    <vehicle id="161" depart="275.50">
        <route edges="EL -EB"/>
    </vehicle>
    <vehicle id="163" depart="276.00">
        <route edges="ET -ER"/>
    </vehicle>
    <vehicle id="164" depart="277.00">
        <route edges="EL -EB"/>
    </vehicle>
    <vehicle id="165" depart="278.00">
        <route edges="EB -ER"/>
    </vehicle>
    <vehicle id="166" depart="278.50">
        <route edges="ET -EL"/>
    </vehicle>
    <vehicle id="167" depart="280.00">
        <route edges="EB -ET"/>
    </vehicle>
    <vehicle id="168" depart="280.50">
        <route edges="EL -ET"/>
    </vehicle>
    <vehicle id="169" depart="280.50">
        <route edges="EL -ER"/>
    </vehicle>
    <vehicle id="171" depart="284.50">
        <route edges="EL -EB"/>
    </vehicle>
    <vehicle id="172" depart="284.50">
        <route edges="EB -EL"/>
    </vehicle>
    <vehicle id="173" depart="285.50">
        <route edges="EL -ET"/>
    </vehicle>
    <vehicle id="174" depart="290.50">
        <route edges="ER -EB"/>
    </vehicle>
    <vehicle id="175" depart="290.50">
        <route edges="ER -EB"/>
    </vehicle>
    <vehicle id="176" depart="291.50">
        <route edges="ER -ET"/>
    </vehicle>
    <vehicle id="177" depart="292.00">
        <route edges="EL -ET"/>
    </vehicle>
    <vehicle id="179" depart="295.00">
        <route edges="EL -ER"/>
    </vehicle>
    <vehicle id="180" depart="297.00">
        <route edges="ET -ER"/>
    </vehicle>
    <vehicle id="181" depart="298.00">
        <route edges="ET -ER"/>
    </vehicle>
    <vehicle id="182" depart="298.00">
        <route edges="EB -EL"/>
    </vehicle>
    <vehicle id="183" depart="298.50">
        <route edges="EL -ET"/>
    </vehicle>
    <vehicle id="184" depart="300.00">
        <route edges="EB -ER"/>
    </vehicle>
    <vehicle id="186" depart="301.00">
        <route edges="ET -EB"/>
    </vehicle>
    <vehicle id="187" depart="302.50">
        <route edges="ET -EL"/>
    </vehicle>
    <vehicle id="188" depart="302.50">
        <route edges="ET -EB"/>
    </vehicle>
    <vehicle id="191" depart="306.50">
        <route edges="ER -EB"/>
    </vehicle>
    <vehicle id="192" depart="307.50">
        <route edges="ET -EB"/>
    </vehicle>
    <vehicle id="193" depart="308.00">
        <route edges="ER -EL"/>
    </vehicle>
    <vehicle id="194" depart="311.50">
        <route edges="ER -ET"/>
    </vehicle>
    <vehicle id="195" depart="314.00">
        <route edges="EB -ER"/>
    </vehicle>
    <vehicle id="196" depart="315.50">
        <route edges="ER -ET"/>
    </vehicle>
    <vehicle id="197" depart="315.50">
        <route edges="ER -ET"/>
    </vehicle>
    <vehicle id="198" depart="318.50">
        <route edges="EB -ER"/>
    </vehicle>
    <vehicle id="199" depart="322.00">
        <route edges="ER -ET"/>
    </vehicle>
    <vehicle id="202" depart="323.00">
        <route edges="ET -EB"/>
    </vehicle>
    <vehicle id="203" depart="323.00">
        <route edges="EB -ET"/>
    </vehicle>
    <vehicle id="206" depart="327.50">
        <route edges="EL -ER"/>
    </vehicle>
    <vehicle id="207" depart="328.00">
        <route edges="ER -EL"/>
    </vehicle>
    <vehicle id="208" depart="329.50">
        <route edges="EB -EL"/>
    </vehicle>
    <vehicle id="211" depart="332.00">
        <route edges="ET -ER"/>
    </vehicle>
    <vehicle id="212" depart="332.50">
        <route edges="EB -EL"/>
    </vehicle>
    <vehicle id="214" depart="335.50">
        <route edges="EL -ET"/>
    </vehicle>
    <vehicle id="215" depart="337.50">
        <route edges="EL -ET"/>
    </vehicle>
    <vehicle id="216" depart="338.00">
        <route edges="ET -ER"/>
    </vehicle>
    <vehicle id="217" depart="342.50">
        <route edges="ET -EB"/>
    </vehicle>
    <vehicle id="218" depart="345.00">
        <route edges="EL -ER"/>
    </vehicle>
    <vehicle id="219" depart="346.00">
        <route edges="ET -EL"/>
    </vehicle>
    <vehicle id="221" depart="347.00">
        <route edges="EB -EL"/>
    </vehicle>
    <vehicle id="222" depart="347.00">
        <route edges="ET -EL"/>
    </vehicle>
    <vehicle id="223" depart="351.50">
        <route edges="EL -ER"/>
    </vehicle>
    <vehicle id="224" depart="353.50">
        <route edges="EL -EB"/>
    </vehicle>
    <vehicle id="225" depart="355.50">
        <route edges="ET -EB"/>
    </vehicle>
    <vehicle id="226" depart="355.50">
        <route edges="ER -EL"/>
    </vehicle>
    <vehicle id="227" depart="359.50">
        <route edges="ET -ER"/>
    </vehicle>
    <vehicle id="228" depart="360.00">
        <route edges="ER -EB"/>
    </vehicle>
    <vehicle id="229" depart="365.50">
        <route edges="ET -EB"/>
    </vehicle>
    <vehicle id="231" depart="369.00">
        <route edges="EB -EL"/>
    </vehicle>
    <vehicle id="232" depart="372.50">
        <route edges="EB -EL"/>
    </vehicle>
    <vehicle id="234" depart="375.00">
        <route edges="ET -ER"/>
    </vehicle>
    <vehicle id="235" depart="375.50">
        <route edges="EB -EL"/>
    </vehicle>
    <vehicle id="236" depart="378.00">
        <route edges="EL -ET"/>
    </vehicle>
    <vehicle id="237" depart="378.50">
        <route edges="EL -ER"/>
    </vehicle>
    <vehicle id="238" depart="379.00">
        <route edges="EL -ET"/>
    </vehicle>
    <vehicle id="239" depart="381.00">
        <route edges="EL -ET"/>
    </vehicle>
    <vehicle id="241" depart="381.50">
        <route edges="EB -ET"/>
    </vehicle>
    <vehicle id="242" depart="382.00">
        <route edges="ET -EB"/>
    </vehicle>
    <vehicle id="244" depart="383.50">
        <route edges="EB -ER"/>
    </vehicle>
    <vehicle id="245" depart="387.50">
        <route edges="ER -ET"/>
    </vehicle>
    <vehicle id="246" depart="389.00">
        <route edges="ET -ER"/>
    </vehicle>
    <vehicle id="247" depart="390.50">
        <route edges="EL -EB"/>
    </vehicle>
    <vehicle id="248" depart="395.50">
        <route edges="EB -ET"/>
    </vehicle>
    <vehicle id="249" depart="396.00">
        <route edges="EB -ER"/>
    </vehicle>
    <vehicle id="250" depart="396.50">
        <route edges="ET -ER"/>
    </vehicle>
    <vehicle id="251" depart="397.00">
        <route edges="ER -EL"/>
    </vehicle>
    <vehicle id="253" depart="400.00">
        <route edges="EL -EB"/>
    </vehicle>
    <vehicle id="254" depart="405.50">
        <route edges="EL -ER"/>
    </vehicle>
    <vehicle id="256" depart="407.00">
        <route edges="EB -ET"/>
    </vehicle>
    <vehicle id="259" depart="411.00">
        <route edges="EL -ER"/>
    </vehicle>
    <vehicle id="262" depart="416.00">
        <route edges="EL -ER"/>
    </vehicle>
    <vehicle id="263" depart="420.00">
        <route edges="ET -ER"/>
    </vehicle>
    <vehicle id="264" depart="420.50">
        <route edges="EB -ER"/>
    </vehicle>
    <vehicle id="270" depart="432.50">
        <route edges="ET -EL"/>
    </vehicle>
    <vehicle id="273" depart="438.00">
        <route edges="EL -ER"/>
    </vehicle>
    <vehicle id="275" depart="439.00">
        <route edges="EL -ET"/>
    </vehicle>
    <vehicle id="277" depart="442.00">
        <route edges="EB -ER"/>
    </vehicle>
    <vehicle id="278" depart="443.00">
        <route edges="ER -EL"/>
    </vehicle>
    <vehicle id="279" depart="446.50">
        <route edges="EL -ER"/>
    </vehicle>
    <vehicle id="282" depart="448.00">
        <route edges="ET -ER"/>
    </vehicle>
    <vehicle id="284" depart="450.50">
        <route edges="ET -EL"/>
    </vehicle>
    <vehicle id="285" depart="454.50">
        <route edges="ET -EL"/>
    </vehicle>
    <vehicle id="286" depart="455.50">
        <route edges="ER -EL"/>
    </vehicle>
    <vehicle id="289" depart="462.50">
        <route edges="ER -EL"/>
    </vehicle>
    <vehicle id="292" depart="466.50">
        <route edges="EL -ET"/>
    </vehicle>
    <vehicle id="293" depart="467.50">
        <route edges="EB -ET"/>
    </vehicle>
    <vehicle id="294" depart="467.50">
        <route edges="EL -ET"/>
    </vehicle>
    <vehicle id="296" depart="468.50">
        <route edges="EB -ET"/>
    </vehicle>
    <vehicle id="298" depart="469.50">
        <route edges="EL -ET"/>
    </vehicle>
    <vehicle id="299" depart="470.00">
        <route edges="EL -EB"/>
    </vehicle>
    <vehicle id="300" depart="471.00">
        <route edges="EL -EB"/>
    </vehicle>
    <vehicle id="301" depart="471.00">
        <route edges="ET -ER"/>
    </vehicle>
    <vehicle id="302" depart="472.00">
        <route edges="EB -ET"/>
    </vehicle>
    <vehicle id="303" depart="475.00">
        <route edges="ET -EB"/>
    </vehicle>
    <vehicle id="306" depart="480.00">
        <route edges="EB -ER"/>
    </vehicle>
    <vehicle id="307" depart="480.00">
        <route edges="ER -ET"/>
    </vehicle>
    <vehicle id="309" depart="482.00">
        <route edges="ER -EB"/>
    </vehicle>
    <vehicle id="310" depart="482.50">
        <route edges="EB -ER"/>
    </vehicle>
    <vehicle id="311" depart="483.50">
        <route edges="EB -ET"/>
    </vehicle>
    <vehicle id="312" depart="489.00">
        <route edges="EL -EB"/>
    </vehicle>
    <vehicle id="313" depart="494.00">
        <route edges="ER -EL"/>
    </vehicle>
    <vehicle id="315" depart="497.50">
        <route edges="ET -EL"/>
    </vehicle>
    <vehicle id="317" depart="499.00">
        <route edges="EL -ER"/>
    </vehicle>
    <vehicle id="318" depart="500.50">
        <route edges="EB -ET"/>
    </vehicle>
    <vehicle id="319" depart="502.50">
        <route edges="EL -ET"/>
    </vehicle>
    <vehicle id="320" depart="504.00">
        <route edges="EB -ET"/>
    </vehicle>
    <vehicle id="321" depart="508.00">
        <route edges="ET -EB"/>
    </vehicle>
    <vehicle id="322" depart="509.00">
        <route edges="EB -ET"/>
    </vehicle>
    <vehicle id="324" depart="512.00">
        <route edges="ER -EB"/>
    </vehicle>
    <vehicle id="325" depart="517.50">
        <route edges="ER -ET"/>
    </vehicle>
    <vehicle id="326" depart="517.50">
        <route edges="EL -ER"/>
    </vehicle>
    <vehicle id="327" depart="518.50">
        <route edges="ET -ER"/>
    </vehicle>
    <vehicle id="328" depart="519.50">
        <route edges="ER -EB"/>
    </vehicle>
    <vehicle id="329" depart="519.50">
        <route edges="EB -ET"/>
    </vehicle>
    <vehicle id="331" depart="521.50">
        <route edges="EL -EB"/>
    </vehicle>
    <vehicle id="332" depart="522.00">
        <route edges="EL -ER"/>
    </vehicle>
    <vehicle id="333" depart="522.50">
        <route edges="EB -ER"/>
    </vehicle>
    <vehicle id="334" depart="523.00">
        <route edges="EB -EL"/>
    </vehicle>
    <vehicle id="335" depart="525.00">
        <route edges="EB -ER"/>
    </vehicle>
    <vehicle id="337" depart="527.00">
        <route edges="EL -ET"/>
    </vehicle>
    <vehicle id="339" depart="534.00">
        <route edges="EL -ET"/>
    </vehicle>
    <vehicle id="340" depart="535.50">
        <route edges="EL -ER"/>
    </vehicle>
    <vehicle id="342" depart="541.00">
        <route edges="ET -EL"/>
    </vehicle>
    <vehicle id="343" depart="542.50">
        <route edges="EL -EB"/>
    </vehicle>
    <vehicle id="344" depart="543.50">
        <route edges="ER -ET"/>
    </vehicle>
    <vehicle id="345" depart="545.50">
        <route edges="ER -EL"/>
    </vehicle>
    <vehicle id="348" depart="548.00">
        <route edges="ER -EL"/>
    </vehicle>
    <vehicle id="350" depart="549.50">
        <route edges="EB -ER"/>
    </vehicle>
    <vehicle id="351" depart="554.00">
        <route edges="ET -ER"/>
    </vehicle>
    <vehicle id="352" depart="554.50">
        <route edges="EL -ET"/>
    </vehicle>
    <vehicle id="353" depart="555.00">
        <route edges="EL -EB"/>
    </vehicle>
    <vehicle id="355" depart="555.50">
        <route edges="ET -EL"/>
    </vehicle>
    <vehicle id="356" depart="559.50">
        <route edges="ER -EL"/>
    </vehicle>
    <vehicle id="357" depart="560.50">
        <route edges="EB -ET"/>
    </vehicle>
    <vehicle id="358" depart="561.00">
        <route edges="ET -EB"/>
    </vehicle>
    <vehicle id="359" depart="561.50">
        <route edges="EB -ER"/>
    </vehicle>
    <vehicle id="360" depart="562.00">
        <route edges="EL -ET"/>
    </vehicle>
    <vehicle id="361" depart="562.50">
        <route edges="ET -EL"/>
    </vehicle>
    <vehicle id="362" depart="562.50">
        <route edges="ER -EL"/>
    </vehicle>
    <vehicle id="363" depart="563.00">
        <route edges="EL -EB"/>
    </vehicle>
    <vehicle id="365" depart="563.50">
        <route edges="ET -ER"/>
    </vehicle>
    <vehicle id="367" depart="566.50">
        <route edges="ET -EB"/>
    </vehicle>
    <vehicle id="368" depart="568.00">
        <route edges="EB -ER"/>
    </vehicle>
    <vehicle id="370" depart="570.00">
        <route edges="EB -ET"/>
    </vehicle>
    <vehicle id="371" depart="571.00">
        <route edges="EL -ER"/>
    </vehicle>
    <vehicle id="372" depart="572.00">
        <route edges="EL -ER"/>
    </vehicle>
    <vehicle id="373" depart="572.50">
        <route edges="ET -ER"/>
    </vehicle>
    <vehicle id="375" depart="573.50">
        <route edges="ER -ET"/>
    </vehicle>
    <vehicle id="377" depart="579.00">
        <route edges="ET -EL"/>
    </vehicle>
    <vehicle id="378" depart="580.00">
        <route edges="EB -ER"/>
    </vehicle>
    <vehicle id="379" depart="585.00">
        <route edges="EB -ET"/>
    </vehicle>
    <vehicle id="381" depart="590.50">
        <route edges="ER -EB"/>
    </vehicle>
    <vehicle id="384" depart="598.50">
        <route edges="ER -EL"/>
    </vehicle>
    <vehicle id="385" depart="599.00">
        <route edges="ER -EL"/>
    </vehicle>
    <vehicle id="387" depart="603.00">
        <route edges="EB -ET"/>
    </vehicle>
    <vehicle id="388" depart="604.50">
        <route edges="ET -ER"/>
    </vehicle>
    <vehicle id="389" depart="606.00">
        <route edges="EB -ET"/>
    </vehicle>
    <vehicle id="390" depart="608.50">
        <route edges="ER -EL"/>
    </vehicle>
    <vehicle id="391" depart="610.00">
        <route edges="EL -EB"/>
    </vehicle>
    <vehicle id="392" depart="612.50">
        <route edges="ET -EL"/>
    </vehicle>
    <vehicle id="395" depart="621.50">
        <route edges="EL -ET"/>
    </vehicle>
    <vehicle id="396" depart="623.00">
        <route edges="EB -EL"/>
    </vehicle>
    <vehicle id="397" depart="624.50">
        <route edges="ER -EB"/>
    </vehicle>
    <vehicle id="399" depart="625.00">
        <route edges="ET -ER"/>
    </vehicle>
    <vehicle id="400" depart="631.50">
        <route edges="EB -EL"/>
    </vehicle>
    <vehicle id="401" depart="631.50">
        <route edges="EB -ER"/>
    </vehicle>
    <vehicle id="403" depart="633.50">
        <route edges="ET -ER"/>
    </vehicle>
    <vehicle id="404" depart="634.00">
        <route edges="ET -ER"/>
    </vehicle>
    <vehicle id="405" depart="634.50">
        <route edges="ER -EL"/>
    </vehicle>
    <vehicle id="406" depart="635.50">
        <route edges="EL -ET"/>
    </vehicle>
    <vehicle id="408" depart="641.00">
        <route edges="EL -ET"/>
    </vehicle>
    <vehicle id="411" depart="644.00">
        <route edges="EB -ER"/>
    </vehicle>
    <vehicle id="412" depart="645.50">
        <route edges="EB -EL"/>
    </vehicle>
    <vehicle id="413" depart="647.50">
        <route edges="ER -ET"/>
    </vehicle>
    <vehicle id="414" depart="651.00">
        <route edges="ER -EL"/>
    </vehicle>
    <vehicle id="415" depart="651.50">
        <route edges="EB -ET"/>
    </vehicle>
    <vehicle id="416" depart="653.50">
        <route edges="EL -ET"/>
    </vehicle>
    <vehicle id="417" depart="654.00">
        <route edges="ER -EL"/>
    </vehicle>
    <vehicle id="418" depart="655.50">
        <route edges="EL -EB"/>
    </vehicle>
    <vehicle id="419" depart="658.00">
        <route edges="EB -ET"/>
    </vehicle>
    <vehicle id="420" depart="661.00">
        <route edges="EB -ET"/>
    </vehicle>
    <vehicle id="421" depart="661.50">
        <route edges="EB -EL"/>
    </vehicle>
    <vehicle id="422" depart="663.50">
        <route edges="ET -EB"/>
    </vehicle>
    <vehicle id="424" depart="664.00">
        <route edges="EB -ET"/>
    </vehicle>
    <vehicle id="425" depart="665.50">
        <route edges="EL -ER"/>
    </vehicle>
    <vehicle id="426" depart="665.50">
        <route edges="ER -ET"/>
    </vehicle>
    <vehicle id="427" depart="672.00">
        <route edges="EB -ER"/>
    </vehicle>
    <vehicle id="428" depart="673.00">
        <route edges="ER -EL"/>
    </vehicle>
    <vehicle id="429" depart="673.50">
        <route edges="ER -ET"/>
    </vehicle>
    <vehicle id="431" depart="676.50">
        <route edges="ER -EB"/>
    </vehicle>
    <vehicle id="432" depart="677.00">
        <route edges="ET -EB"/>
    </vehicle>
    <vehicle id="434" depart="681.00">
        <route edges="EL -ET"/>
    </vehicle>
    <vehicle id="435" depart="681.00">
        <route edges="EL -ER"/>
    </vehicle>
    <vehicle id="436" depart="683.00">
        <route edges="ER -EB"/>
    </vehicle>
    <vehicle id="438" depart="683.50">
        <route edges="EL -ET"/>
    </vehicle>
    <vehicle id="439" depart="685.00">
        <route edges="EB -ER"/>
    </vehicle>
    <vehicle id="440" depart="688.00">
        <route edges="ET -ER"/>
    </vehicle>
    <vehicle id="441" depart="689.50">
        <route edges="ET -ER"/>
    </vehicle>
    <vehicle id="442" depart="689.50">
        <route edges="EL -ER"/>
    </vehicle>
    <vehicle id="443" depart="690.00">
        <route edges="ER -EB"/>
    </vehicle>
    <vehicle id="444" depart="693.50">
        <route edges="EB -ER"/>
    </vehicle>
    <vehicle id="445" depart="694.50">
        <route edges="ER -ET"/>
    </vehicle>
    <vehicle id="446" depart="695.00">
        <route edges="EB -ER"/>
    </vehicle>
    <vehicle id="447" depart="696.50">
        <route edges="ET -EB"/>
    </vehicle>
    <vehicle id="449" depart="701.00">
        <route edges="ER -ET"/>
    </vehicle>
    <vehicle id="451" depart="706.50">
        <route edges="ET -ER"/>
    </vehicle>
    <vehicle id="452" depart="707.00">
        <route edges="ER -ET"/>
    </vehicle>
    <vehicle id="453" depart="709.00">
        <route edges="ER -ET"/>
    </vehicle>
    <vehicle id="454" depart="713.00">
        <route edges="EL -EB"/>
    </vehicle>
    <vehicle id="455" depart="714.00">
        <route edges="EB -EL"/>
    </vehicle>
    <vehicle id="457" depart="717.00">
        <route edges="EL -ET"/>
    </vehicle>
    <vehicle id="458" depart="719.50">
        <route edges="ET -ER"/>
    </vehicle>
    <vehicle id="460" depart="720.00">